
---------- Begin Simulation Statistics ----------
final_tick                               19422184126249                       # Number of ticks from beginning of simulation (restored from checkpoints and never reset)
host_inst_rate                               14133647                       # Simulator instruction rate (inst/s)
host_mem_usage                                9653836                       # Number of bytes of host memory used
host_op_rate                                 14287541                       # Simulator op (including micro ops) rate (op/s)
host_seconds                                   382.67                       # Real time elapsed on the host
host_tick_rate                            50755012695                       # Simulator tick rate (ticks/s)
sim_freq                                 1000000000000                       # Frequency of simulated ticks
sim_insts                                  5408454519                       # Number of instructions simulated
sim_ops                                    5467346083                       # Number of ops (including micro ops) simulated
sim_seconds                                 19.422184                       # Number of seconds simulated
sim_ticks                                19422184126249                       # Number of ticks simulated
system.apicbridge.pwrStateResidencyTicks::UNDEFINED 19422184126249                       # Cumulative time (in ticks) in various power states
system.atomicCpu0.committedInsts                    0                       # Number of instructions committed
system.atomicCpu0.committedOps                      0                       # Number of ops (including micro ops) committed
system.atomicCpu0.dtb.rdAccesses                    0                       # TLB accesses on read requests
system.atomicCpu0.dtb.rdMisses                      0                       # TLB misses on read requests
system.atomicCpu0.dtb.walker.pwrStateResidencyTicks::UNDEFINED 19422184126249                       # Cumulative time (in ticks) in various power states
system.atomicCpu0.dtb.wrAccesses                    0                       # TLB accesses on write requests
system.atomicCpu0.dtb.wrMisses                      0                       # TLB misses on write requests
system.atomicCpu0.idle_fraction                     1                       # Percentage of idle cycles
system.atomicCpu0.itb.rdAccesses                    0                       # TLB accesses on read requests
system.atomicCpu0.itb.rdMisses                      0                       # TLB misses on read requests
system.atomicCpu0.itb.walker.pwrStateResidencyTicks::UNDEFINED 19422184126249                       # Cumulative time (in ticks) in various power states
system.atomicCpu0.itb.wrAccesses                    0                       # TLB accesses on write requests
system.atomicCpu0.itb.wrMisses                      0                       # TLB misses on write requests
system.atomicCpu0.kern.inst.arm                     0                       # number of arm instructions executed
system.atomicCpu0.kern.inst.quiesce                 0                       # number of quiesce instructions executed
system.atomicCpu0.not_idle_fraction                 0                       # Percentage of non-idle cycles
system.atomicCpu0.numCycles                         0                       # number of cpu cycles simulated
system.atomicCpu0.numWorkItemsCompleted             0                       # number of work items this cpu completed
system.atomicCpu0.numWorkItemsStarted               0                       # number of work items this cpu started
system.atomicCpu0.num_busy_cycles                   0                       # Number of busy cycles
system.atomicCpu0.num_conditional_control_insts            0                       # number of instructions that are conditional controls
system.atomicCpu0.num_fp_alu_accesses               0                       # Number of float alu accesses
system.atomicCpu0.num_fp_insts                      0                       # number of float instructions
system.atomicCpu0.num_fp_register_reads             0                       # number of times the floating registers were read
system.atomicCpu0.num_fp_register_writes            0                       # number of times the floating registers were written
system.atomicCpu0.num_func_calls                    0                       # number of times a function call or return occured
system.atomicCpu0.num_idle_cycles                   0                       # Number of idle cycles
system.atomicCpu0.num_int_alu_accesses              0                       # Number of integer alu accesses
system.atomicCpu0.num_int_insts                     0                       # number of integer instructions
system.atomicCpu0.num_int_register_reads            0                       # number of times the integer registers were read
system.atomicCpu0.num_int_register_writes            0                       # number of times the integer registers were written
system.atomicCpu0.num_load_insts                    0                       # Number of load instructions
system.atomicCpu0.num_mem_refs                      0                       # number of memory refs
system.atomicCpu0.num_store_insts                   0                       # Number of store instructions
system.atomicCpu0.num_vec_alu_accesses              0                       # Number of vector alu accesses
system.atomicCpu0.num_vec_insts                     0                       # number of vector instructions
system.atomicCpu0.num_vec_register_reads            0                       # number of times the vector registers were read
system.atomicCpu0.num_vec_register_writes            0                       # number of times the vector registers were written
system.atomicCpu0.op_class::No_OpClass              0                       # Class of executed instruction
system.atomicCpu0.op_class::IntAlu                  0                       # Class of executed instruction
system.atomicCpu0.op_class::IntMult                 0                       # Class of executed instruction
system.atomicCpu0.op_class::IntDiv                  0                       # Class of executed instruction
system.atomicCpu0.op_class::FloatAdd                0                       # Class of executed instruction
system.atomicCpu0.op_class::FloatCmp                0                       # Class of executed instruction
system.atomicCpu0.op_class::FloatCvt                0                       # Class of executed instruction
system.atomicCpu0.op_class::FloatMult               0                       # Class of executed instruction
system.atomicCpu0.op_class::FloatMultAcc            0                       # Class of executed instruction
system.atomicCpu0.op_class::FloatDiv                0                       # Class of executed instruction
system.atomicCpu0.op_class::FloatMisc               0                       # Class of executed instruction
system.atomicCpu0.op_class::FloatSqrt               0                       # Class of executed instruction
system.atomicCpu0.op_class::SimdAdd                 0                       # Class of executed instruction
system.atomicCpu0.op_class::SimdAddAcc              0                       # Class of executed instruction
system.atomicCpu0.op_class::SimdAlu                 0                       # Class of executed instruction
system.atomicCpu0.op_class::SimdCmp                 0                       # Class of executed instruction
system.atomicCpu0.op_class::SimdCvt                 0                       # Class of executed instruction
system.atomicCpu0.op_class::SimdMisc                0                       # Class of executed instruction
system.atomicCpu0.op_class::SimdMult                0                       # Class of executed instruction
system.atomicCpu0.op_class::SimdMultAcc             0                       # Class of executed instruction
system.atomicCpu0.op_class::SimdShift               0                       # Class of executed instruction
system.atomicCpu0.op_class::SimdShiftAcc            0                       # Class of executed instruction
system.atomicCpu0.op_class::SimdDiv                 0                       # Class of executed instruction
system.atomicCpu0.op_class::SimdSqrt                0                       # Class of executed instruction
system.atomicCpu0.op_class::SimdFloatAdd            0                       # Class of executed instruction
system.atomicCpu0.op_class::SimdFloatAlu            0                       # Class of executed instruction
system.atomicCpu0.op_class::SimdFloatCmp            0                       # Class of executed instruction
system.atomicCpu0.op_class::SimdFloatCvt            0                       # Class of executed instruction
system.atomicCpu0.op_class::SimdFloatDiv            0                       # Class of executed instruction
system.atomicCpu0.op_class::SimdFloatMisc            0                       # Class of executed instruction
system.atomicCpu0.op_class::SimdFloatMult            0                       # Class of executed instruction
system.atomicCpu0.op_class::SimdFloatMultAcc            0                       # Class of executed instruction
system.atomicCpu0.op_class::SimdFloatSqrt            0                       # Class of executed instruction
system.atomicCpu0.op_class::SimdReduceAdd            0                       # Class of executed instruction
system.atomicCpu0.op_class::SimdReduceAlu            0                       # Class of executed instruction
system.atomicCpu0.op_class::SimdReduceCmp            0                       # Class of executed instruction
system.atomicCpu0.op_class::SimdFloatReduceAdd            0                       # Class of executed instruction
system.atomicCpu0.op_class::SimdFloatReduceCmp            0                       # Class of executed instruction
system.atomicCpu0.op_class::SimdAes                 0                       # Class of executed instruction
system.atomicCpu0.op_class::SimdAesMix              0                       # Class of executed instruction
system.atomicCpu0.op_class::SimdSha1Hash            0                       # Class of executed instruction
system.atomicCpu0.op_class::SimdSha1Hash2            0                       # Class of executed instruction
system.atomicCpu0.op_class::SimdSha256Hash            0                       # Class of executed instruction
system.atomicCpu0.op_class::SimdSha256Hash2            0                       # Class of executed instruction
system.atomicCpu0.op_class::SimdShaSigma2            0                       # Class of executed instruction
system.atomicCpu0.op_class::SimdShaSigma3            0                       # Class of executed instruction
system.atomicCpu0.op_class::SimdPredAlu             0                       # Class of executed instruction
system.atomicCpu0.op_class::MemRead                 0                       # Class of executed instruction
system.atomicCpu0.op_class::MemWrite                0                       # Class of executed instruction
system.atomicCpu0.op_class::FloatMemRead            0                       # Class of executed instruction
system.atomicCpu0.op_class::FloatMemWrite            0                       # Class of executed instruction
system.atomicCpu0.op_class::IprAccess               0                       # Class of executed instruction
system.atomicCpu0.op_class::InstPrefetch            0                       # Class of executed instruction
system.atomicCpu0.op_class::total                   0                       # Class of executed instruction
system.atomicCpu0.pwrStateResidencyTicks::OFF 19422184126249                       # Cumulative time (in ticks) in various power states
system.atomicCpu1.committedInsts                    0                       # Number of instructions committed
system.atomicCpu1.committedOps                      0                       # Number of ops (including micro ops) committed
system.atomicCpu1.dtb.rdAccesses                    0                       # TLB accesses on read requests
system.atomicCpu1.dtb.rdMisses                      0                       # TLB misses on read requests
system.atomicCpu1.dtb.walker.pwrStateResidencyTicks::UNDEFINED 19422184126249                       # Cumulative time (in ticks) in various power states
system.atomicCpu1.dtb.wrAccesses                    0                       # TLB accesses on write requests
system.atomicCpu1.dtb.wrMisses                      0                       # TLB misses on write requests
system.atomicCpu1.idle_fraction                     1                       # Percentage of idle cycles
system.atomicCpu1.itb.rdAccesses                    0                       # TLB accesses on read requests
system.atomicCpu1.itb.rdMisses                      0                       # TLB misses on read requests
system.atomicCpu1.itb.walker.pwrStateResidencyTicks::UNDEFINED 19422184126249                       # Cumulative time (in ticks) in various power states
system.atomicCpu1.itb.wrAccesses                    0                       # TLB accesses on write requests
system.atomicCpu1.itb.wrMisses                      0                       # TLB misses on write requests
system.atomicCpu1.kern.inst.arm                     0                       # number of arm instructions executed
system.atomicCpu1.kern.inst.quiesce                 0                       # number of quiesce instructions executed
system.atomicCpu1.not_idle_fraction                 0                       # Percentage of non-idle cycles
system.atomicCpu1.numCycles                         0                       # number of cpu cycles simulated
system.atomicCpu1.numWorkItemsCompleted             0                       # number of work items this cpu completed
system.atomicCpu1.numWorkItemsStarted               0                       # number of work items this cpu started
system.atomicCpu1.num_busy_cycles                   0                       # Number of busy cycles
system.atomicCpu1.num_conditional_control_insts            0                       # number of instructions that are conditional controls
system.atomicCpu1.num_fp_alu_accesses               0                       # Number of float alu accesses
system.atomicCpu1.num_fp_insts                      0                       # number of float instructions
system.atomicCpu1.num_fp_register_reads             0                       # number of times the floating registers were read
system.atomicCpu1.num_fp_register_writes            0                       # number of times the floating registers were written
system.atomicCpu1.num_func_calls                    0                       # number of times a function call or return occured
system.atomicCpu1.num_idle_cycles                   0                       # Number of idle cycles
system.atomicCpu1.num_int_alu_accesses              0                       # Number of integer alu accesses
system.atomicCpu1.num_int_insts                     0                       # number of integer instructions
system.atomicCpu1.num_int_register_reads            0                       # number of times the integer registers were read
system.atomicCpu1.num_int_register_writes            0                       # number of times the integer registers were written
system.atomicCpu1.num_load_insts                    0                       # Number of load instructions
system.atomicCpu1.num_mem_refs                      0                       # number of memory refs
system.atomicCpu1.num_store_insts                   0                       # Number of store instructions
system.atomicCpu1.num_vec_alu_accesses              0                       # Number of vector alu accesses
system.atomicCpu1.num_vec_insts                     0                       # number of vector instructions
system.atomicCpu1.num_vec_register_reads            0                       # number of times the vector registers were read
system.atomicCpu1.num_vec_register_writes            0                       # number of times the vector registers were written
system.atomicCpu1.op_class::No_OpClass              0                       # Class of executed instruction
system.atomicCpu1.op_class::IntAlu                  0                       # Class of executed instruction
system.atomicCpu1.op_class::IntMult                 0                       # Class of executed instruction
system.atomicCpu1.op_class::IntDiv                  0                       # Class of executed instruction
system.atomicCpu1.op_class::FloatAdd                0                       # Class of executed instruction
system.atomicCpu1.op_class::FloatCmp                0                       # Class of executed instruction
system.atomicCpu1.op_class::FloatCvt                0                       # Class of executed instruction
system.atomicCpu1.op_class::FloatMult               0                       # Class of executed instruction
system.atomicCpu1.op_class::FloatMultAcc            0                       # Class of executed instruction
system.atomicCpu1.op_class::FloatDiv                0                       # Class of executed instruction
system.atomicCpu1.op_class::FloatMisc               0                       # Class of executed instruction
system.atomicCpu1.op_class::FloatSqrt               0                       # Class of executed instruction
system.atomicCpu1.op_class::SimdAdd                 0                       # Class of executed instruction
system.atomicCpu1.op_class::SimdAddAcc              0                       # Class of executed instruction
system.atomicCpu1.op_class::SimdAlu                 0                       # Class of executed instruction
system.atomicCpu1.op_class::SimdCmp                 0                       # Class of executed instruction
system.atomicCpu1.op_class::SimdCvt                 0                       # Class of executed instruction
system.atomicCpu1.op_class::SimdMisc                0                       # Class of executed instruction
system.atomicCpu1.op_class::SimdMult                0                       # Class of executed instruction
system.atomicCpu1.op_class::SimdMultAcc             0                       # Class of executed instruction
system.atomicCpu1.op_class::SimdShift               0                       # Class of executed instruction
system.atomicCpu1.op_class::SimdShiftAcc            0                       # Class of executed instruction
system.atomicCpu1.op_class::SimdDiv                 0                       # Class of executed instruction
system.atomicCpu1.op_class::SimdSqrt                0                       # Class of executed instruction
system.atomicCpu1.op_class::SimdFloatAdd            0                       # Class of executed instruction
system.atomicCpu1.op_class::SimdFloatAlu            0                       # Class of executed instruction
system.atomicCpu1.op_class::SimdFloatCmp            0                       # Class of executed instruction
system.atomicCpu1.op_class::SimdFloatCvt            0                       # Class of executed instruction
system.atomicCpu1.op_class::SimdFloatDiv            0                       # Class of executed instruction
system.atomicCpu1.op_class::SimdFloatMisc            0                       # Class of executed instruction
system.atomicCpu1.op_class::SimdFloatMult            0                       # Class of executed instruction
system.atomicCpu1.op_class::SimdFloatMultAcc            0                       # Class of executed instruction
system.atomicCpu1.op_class::SimdFloatSqrt            0                       # Class of executed instruction
system.atomicCpu1.op_class::SimdReduceAdd            0                       # Class of executed instruction
system.atomicCpu1.op_class::SimdReduceAlu            0                       # Class of executed instruction
system.atomicCpu1.op_class::SimdReduceCmp            0                       # Class of executed instruction
system.atomicCpu1.op_class::SimdFloatReduceAdd            0                       # Class of executed instruction
system.atomicCpu1.op_class::SimdFloatReduceCmp            0                       # Class of executed instruction
system.atomicCpu1.op_class::SimdAes                 0                       # Class of executed instruction
system.atomicCpu1.op_class::SimdAesMix              0                       # Class of executed instruction
system.atomicCpu1.op_class::SimdSha1Hash            0                       # Class of executed instruction
system.atomicCpu1.op_class::SimdSha1Hash2            0                       # Class of executed instruction
system.atomicCpu1.op_class::SimdSha256Hash            0                       # Class of executed instruction
system.atomicCpu1.op_class::SimdSha256Hash2            0                       # Class of executed instruction
system.atomicCpu1.op_class::SimdShaSigma2            0                       # Class of executed instruction
system.atomicCpu1.op_class::SimdShaSigma3            0                       # Class of executed instruction
system.atomicCpu1.op_class::SimdPredAlu             0                       # Class of executed instruction
system.atomicCpu1.op_class::MemRead                 0                       # Class of executed instruction
system.atomicCpu1.op_class::MemWrite                0                       # Class of executed instruction
system.atomicCpu1.op_class::FloatMemRead            0                       # Class of executed instruction
system.atomicCpu1.op_class::FloatMemWrite            0                       # Class of executed instruction
system.atomicCpu1.op_class::IprAccess               0                       # Class of executed instruction
system.atomicCpu1.op_class::InstPrefetch            0                       # Class of executed instruction
system.atomicCpu1.op_class::total                   0                       # Class of executed instruction
system.atomicCpu1.pwrStateResidencyTicks::OFF 19422184126249                       # Cumulative time (in ticks) in various power states
system.atomicCpu2.committedInsts                    0                       # Number of instructions committed
system.atomicCpu2.committedOps                      0                       # Number of ops (including micro ops) committed
system.atomicCpu2.dtb.rdAccesses                    0                       # TLB accesses on read requests
system.atomicCpu2.dtb.rdMisses                      0                       # TLB misses on read requests
system.atomicCpu2.dtb.walker.pwrStateResidencyTicks::UNDEFINED 19422184126249                       # Cumulative time (in ticks) in various power states
system.atomicCpu2.dtb.wrAccesses                    0                       # TLB accesses on write requests
system.atomicCpu2.dtb.wrMisses                      0                       # TLB misses on write requests
system.atomicCpu2.idle_fraction                     1                       # Percentage of idle cycles
system.atomicCpu2.itb.rdAccesses                    0                       # TLB accesses on read requests
system.atomicCpu2.itb.rdMisses                      0                       # TLB misses on read requests
system.atomicCpu2.itb.walker.pwrStateResidencyTicks::UNDEFINED 19422184126249                       # Cumulative time (in ticks) in various power states
system.atomicCpu2.itb.wrAccesses                    0                       # TLB accesses on write requests
system.atomicCpu2.itb.wrMisses                      0                       # TLB misses on write requests
system.atomicCpu2.kern.inst.arm                     0                       # number of arm instructions executed
system.atomicCpu2.kern.inst.quiesce                 0                       # number of quiesce instructions executed
system.atomicCpu2.not_idle_fraction                 0                       # Percentage of non-idle cycles
system.atomicCpu2.numCycles                         0                       # number of cpu cycles simulated
system.atomicCpu2.numWorkItemsCompleted             0                       # number of work items this cpu completed
system.atomicCpu2.numWorkItemsStarted               0                       # number of work items this cpu started
system.atomicCpu2.num_busy_cycles                   0                       # Number of busy cycles
system.atomicCpu2.num_conditional_control_insts            0                       # number of instructions that are conditional controls
system.atomicCpu2.num_fp_alu_accesses               0                       # Number of float alu accesses
system.atomicCpu2.num_fp_insts                      0                       # number of float instructions
system.atomicCpu2.num_fp_register_reads             0                       # number of times the floating registers were read
system.atomicCpu2.num_fp_register_writes            0                       # number of times the floating registers were written
system.atomicCpu2.num_func_calls                    0                       # number of times a function call or return occured
system.atomicCpu2.num_idle_cycles                   0                       # Number of idle cycles
system.atomicCpu2.num_int_alu_accesses              0                       # Number of integer alu accesses
system.atomicCpu2.num_int_insts                     0                       # number of integer instructions
system.atomicCpu2.num_int_register_reads            0                       # number of times the integer registers were read
system.atomicCpu2.num_int_register_writes            0                       # number of times the integer registers were written
system.atomicCpu2.num_load_insts                    0                       # Number of load instructions
system.atomicCpu2.num_mem_refs                      0                       # number of memory refs
system.atomicCpu2.num_store_insts                   0                       # Number of store instructions
system.atomicCpu2.num_vec_alu_accesses              0                       # Number of vector alu accesses
system.atomicCpu2.num_vec_insts                     0                       # number of vector instructions
system.atomicCpu2.num_vec_register_reads            0                       # number of times the vector registers were read
system.atomicCpu2.num_vec_register_writes            0                       # number of times the vector registers were written
system.atomicCpu2.op_class::No_OpClass              0                       # Class of executed instruction
system.atomicCpu2.op_class::IntAlu                  0                       # Class of executed instruction
system.atomicCpu2.op_class::IntMult                 0                       # Class of executed instruction
system.atomicCpu2.op_class::IntDiv                  0                       # Class of executed instruction
system.atomicCpu2.op_class::FloatAdd                0                       # Class of executed instruction
system.atomicCpu2.op_class::FloatCmp                0                       # Class of executed instruction
system.atomicCpu2.op_class::FloatCvt                0                       # Class of executed instruction
system.atomicCpu2.op_class::FloatMult               0                       # Class of executed instruction
system.atomicCpu2.op_class::FloatMultAcc            0                       # Class of executed instruction
system.atomicCpu2.op_class::FloatDiv                0                       # Class of executed instruction
system.atomicCpu2.op_class::FloatMisc               0                       # Class of executed instruction
system.atomicCpu2.op_class::FloatSqrt               0                       # Class of executed instruction
system.atomicCpu2.op_class::SimdAdd                 0                       # Class of executed instruction
system.atomicCpu2.op_class::SimdAddAcc              0                       # Class of executed instruction
system.atomicCpu2.op_class::SimdAlu                 0                       # Class of executed instruction
system.atomicCpu2.op_class::SimdCmp                 0                       # Class of executed instruction
system.atomicCpu2.op_class::SimdCvt                 0                       # Class of executed instruction
system.atomicCpu2.op_class::SimdMisc                0                       # Class of executed instruction
system.atomicCpu2.op_class::SimdMult                0                       # Class of executed instruction
system.atomicCpu2.op_class::SimdMultAcc             0                       # Class of executed instruction
system.atomicCpu2.op_class::SimdShift               0                       # Class of executed instruction
system.atomicCpu2.op_class::SimdShiftAcc            0                       # Class of executed instruction
system.atomicCpu2.op_class::SimdDiv                 0                       # Class of executed instruction
system.atomicCpu2.op_class::SimdSqrt                0                       # Class of executed instruction
system.atomicCpu2.op_class::SimdFloatAdd            0                       # Class of executed instruction
system.atomicCpu2.op_class::SimdFloatAlu            0                       # Class of executed instruction
system.atomicCpu2.op_class::SimdFloatCmp            0                       # Class of executed instruction
system.atomicCpu2.op_class::SimdFloatCvt            0                       # Class of executed instruction
system.atomicCpu2.op_class::SimdFloatDiv            0                       # Class of executed instruction
system.atomicCpu2.op_class::SimdFloatMisc            0                       # Class of executed instruction
system.atomicCpu2.op_class::SimdFloatMult            0                       # Class of executed instruction
system.atomicCpu2.op_class::SimdFloatMultAcc            0                       # Class of executed instruction
system.atomicCpu2.op_class::SimdFloatSqrt            0                       # Class of executed instruction
system.atomicCpu2.op_class::SimdReduceAdd            0                       # Class of executed instruction
system.atomicCpu2.op_class::SimdReduceAlu            0                       # Class of executed instruction
system.atomicCpu2.op_class::SimdReduceCmp            0                       # Class of executed instruction
system.atomicCpu2.op_class::SimdFloatReduceAdd            0                       # Class of executed instruction
system.atomicCpu2.op_class::SimdFloatReduceCmp            0                       # Class of executed instruction
system.atomicCpu2.op_class::SimdAes                 0                       # Class of executed instruction
system.atomicCpu2.op_class::SimdAesMix              0                       # Class of executed instruction
system.atomicCpu2.op_class::SimdSha1Hash            0                       # Class of executed instruction
system.atomicCpu2.op_class::SimdSha1Hash2            0                       # Class of executed instruction
system.atomicCpu2.op_class::SimdSha256Hash            0                       # Class of executed instruction
system.atomicCpu2.op_class::SimdSha256Hash2            0                       # Class of executed instruction
system.atomicCpu2.op_class::SimdShaSigma2            0                       # Class of executed instruction
system.atomicCpu2.op_class::SimdShaSigma3            0                       # Class of executed instruction
system.atomicCpu2.op_class::SimdPredAlu             0                       # Class of executed instruction
system.atomicCpu2.op_class::MemRead                 0                       # Class of executed instruction
system.atomicCpu2.op_class::MemWrite                0                       # Class of executed instruction
system.atomicCpu2.op_class::FloatMemRead            0                       # Class of executed instruction
system.atomicCpu2.op_class::FloatMemWrite            0                       # Class of executed instruction
system.atomicCpu2.op_class::IprAccess               0                       # Class of executed instruction
system.atomicCpu2.op_class::InstPrefetch            0                       # Class of executed instruction
system.atomicCpu2.op_class::total                   0                       # Class of executed instruction
system.atomicCpu2.pwrStateResidencyTicks::OFF 19422184126249                       # Cumulative time (in ticks) in various power states
system.atomicCpu3.committedInsts                    0                       # Number of instructions committed
system.atomicCpu3.committedOps                      0                       # Number of ops (including micro ops) committed
system.atomicCpu3.dtb.rdAccesses                    0                       # TLB accesses on read requests
system.atomicCpu3.dtb.rdMisses                      0                       # TLB misses on read requests
system.atomicCpu3.dtb.walker.pwrStateResidencyTicks::UNDEFINED 19422184126249                       # Cumulative time (in ticks) in various power states
system.atomicCpu3.dtb.wrAccesses                    0                       # TLB accesses on write requests
system.atomicCpu3.dtb.wrMisses                      0                       # TLB misses on write requests
system.atomicCpu3.idle_fraction                     1                       # Percentage of idle cycles
system.atomicCpu3.itb.rdAccesses                    0                       # TLB accesses on read requests
system.atomicCpu3.itb.rdMisses                      0                       # TLB misses on read requests
system.atomicCpu3.itb.walker.pwrStateResidencyTicks::UNDEFINED 19422184126249                       # Cumulative time (in ticks) in various power states
system.atomicCpu3.itb.wrAccesses                    0                       # TLB accesses on write requests
system.atomicCpu3.itb.wrMisses                      0                       # TLB misses on write requests
system.atomicCpu3.kern.inst.arm                     0                       # number of arm instructions executed
system.atomicCpu3.kern.inst.quiesce                 0                       # number of quiesce instructions executed
system.atomicCpu3.not_idle_fraction                 0                       # Percentage of non-idle cycles
system.atomicCpu3.numCycles                         0                       # number of cpu cycles simulated
system.atomicCpu3.numWorkItemsCompleted             0                       # number of work items this cpu completed
system.atomicCpu3.numWorkItemsStarted               0                       # number of work items this cpu started
system.atomicCpu3.num_busy_cycles                   0                       # Number of busy cycles
system.atomicCpu3.num_conditional_control_insts            0                       # number of instructions that are conditional controls
system.atomicCpu3.num_fp_alu_accesses               0                       # Number of float alu accesses
system.atomicCpu3.num_fp_insts                      0                       # number of float instructions
system.atomicCpu3.num_fp_register_reads             0                       # number of times the floating registers were read
system.atomicCpu3.num_fp_register_writes            0                       # number of times the floating registers were written
system.atomicCpu3.num_func_calls                    0                       # number of times a function call or return occured
system.atomicCpu3.num_idle_cycles                   0                       # Number of idle cycles
system.atomicCpu3.num_int_alu_accesses              0                       # Number of integer alu accesses
system.atomicCpu3.num_int_insts                     0                       # number of integer instructions
system.atomicCpu3.num_int_register_reads            0                       # number of times the integer registers were read
system.atomicCpu3.num_int_register_writes            0                       # number of times the integer registers were written
system.atomicCpu3.num_load_insts                    0                       # Number of load instructions
system.atomicCpu3.num_mem_refs                      0                       # number of memory refs
system.atomicCpu3.num_store_insts                   0                       # Number of store instructions
system.atomicCpu3.num_vec_alu_accesses              0                       # Number of vector alu accesses
system.atomicCpu3.num_vec_insts                     0                       # number of vector instructions
system.atomicCpu3.num_vec_register_reads            0                       # number of times the vector registers were read
system.atomicCpu3.num_vec_register_writes            0                       # number of times the vector registers were written
system.atomicCpu3.op_class::No_OpClass              0                       # Class of executed instruction
system.atomicCpu3.op_class::IntAlu                  0                       # Class of executed instruction
system.atomicCpu3.op_class::IntMult                 0                       # Class of executed instruction
system.atomicCpu3.op_class::IntDiv                  0                       # Class of executed instruction
system.atomicCpu3.op_class::FloatAdd                0                       # Class of executed instruction
system.atomicCpu3.op_class::FloatCmp                0                       # Class of executed instruction
system.atomicCpu3.op_class::FloatCvt                0                       # Class of executed instruction
system.atomicCpu3.op_class::FloatMult               0                       # Class of executed instruction
system.atomicCpu3.op_class::FloatMultAcc            0                       # Class of executed instruction
system.atomicCpu3.op_class::FloatDiv                0                       # Class of executed instruction
system.atomicCpu3.op_class::FloatMisc               0                       # Class of executed instruction
system.atomicCpu3.op_class::FloatSqrt               0                       # Class of executed instruction
system.atomicCpu3.op_class::SimdAdd                 0                       # Class of executed instruction
system.atomicCpu3.op_class::SimdAddAcc              0                       # Class of executed instruction
system.atomicCpu3.op_class::SimdAlu                 0                       # Class of executed instruction
system.atomicCpu3.op_class::SimdCmp                 0                       # Class of executed instruction
system.atomicCpu3.op_class::SimdCvt                 0                       # Class of executed instruction
system.atomicCpu3.op_class::SimdMisc                0                       # Class of executed instruction
system.atomicCpu3.op_class::SimdMult                0                       # Class of executed instruction
system.atomicCpu3.op_class::SimdMultAcc             0                       # Class of executed instruction
system.atomicCpu3.op_class::SimdShift               0                       # Class of executed instruction
system.atomicCpu3.op_class::SimdShiftAcc            0                       # Class of executed instruction
system.atomicCpu3.op_class::SimdDiv                 0                       # Class of executed instruction
system.atomicCpu3.op_class::SimdSqrt                0                       # Class of executed instruction
system.atomicCpu3.op_class::SimdFloatAdd            0                       # Class of executed instruction
system.atomicCpu3.op_class::SimdFloatAlu            0                       # Class of executed instruction
system.atomicCpu3.op_class::SimdFloatCmp            0                       # Class of executed instruction
system.atomicCpu3.op_class::SimdFloatCvt            0                       # Class of executed instruction
system.atomicCpu3.op_class::SimdFloatDiv            0                       # Class of executed instruction
system.atomicCpu3.op_class::SimdFloatMisc            0                       # Class of executed instruction
system.atomicCpu3.op_class::SimdFloatMult            0                       # Class of executed instruction
system.atomicCpu3.op_class::SimdFloatMultAcc            0                       # Class of executed instruction
system.atomicCpu3.op_class::SimdFloatSqrt            0                       # Class of executed instruction
system.atomicCpu3.op_class::SimdReduceAdd            0                       # Class of executed instruction
system.atomicCpu3.op_class::SimdReduceAlu            0                       # Class of executed instruction
system.atomicCpu3.op_class::SimdReduceCmp            0                       # Class of executed instruction
system.atomicCpu3.op_class::SimdFloatReduceAdd            0                       # Class of executed instruction
system.atomicCpu3.op_class::SimdFloatReduceCmp            0                       # Class of executed instruction
system.atomicCpu3.op_class::SimdAes                 0                       # Class of executed instruction
system.atomicCpu3.op_class::SimdAesMix              0                       # Class of executed instruction
system.atomicCpu3.op_class::SimdSha1Hash            0                       # Class of executed instruction
system.atomicCpu3.op_class::SimdSha1Hash2            0                       # Class of executed instruction
system.atomicCpu3.op_class::SimdSha256Hash            0                       # Class of executed instruction
system.atomicCpu3.op_class::SimdSha256Hash2            0                       # Class of executed instruction
system.atomicCpu3.op_class::SimdShaSigma2            0                       # Class of executed instruction
system.atomicCpu3.op_class::SimdShaSigma3            0                       # Class of executed instruction
system.atomicCpu3.op_class::SimdPredAlu             0                       # Class of executed instruction
system.atomicCpu3.op_class::MemRead                 0                       # Class of executed instruction
system.atomicCpu3.op_class::MemWrite                0                       # Class of executed instruction
system.atomicCpu3.op_class::FloatMemRead            0                       # Class of executed instruction
system.atomicCpu3.op_class::FloatMemWrite            0                       # Class of executed instruction
system.atomicCpu3.op_class::IprAccess               0                       # Class of executed instruction
system.atomicCpu3.op_class::InstPrefetch            0                       # Class of executed instruction
system.atomicCpu3.op_class::total                   0                       # Class of executed instruction
system.atomicCpu3.pwrStateResidencyTicks::OFF 19422184126249                       # Cumulative time (in ticks) in various power states
system.atomicCpu4.committedInsts                    0                       # Number of instructions committed
system.atomicCpu4.committedOps                      0                       # Number of ops (including micro ops) committed
system.atomicCpu4.dtb.rdAccesses                    0                       # TLB accesses on read requests
system.atomicCpu4.dtb.rdMisses                      0                       # TLB misses on read requests
system.atomicCpu4.dtb.walker.pwrStateResidencyTicks::UNDEFINED 19422184126249                       # Cumulative time (in ticks) in various power states
system.atomicCpu4.dtb.wrAccesses                    0                       # TLB accesses on write requests
system.atomicCpu4.dtb.wrMisses                      0                       # TLB misses on write requests
system.atomicCpu4.idle_fraction                     1                       # Percentage of idle cycles
system.atomicCpu4.itb.rdAccesses                    0                       # TLB accesses on read requests
system.atomicCpu4.itb.rdMisses                      0                       # TLB misses on read requests
system.atomicCpu4.itb.walker.pwrStateResidencyTicks::UNDEFINED 19422184126249                       # Cumulative time (in ticks) in various power states
system.atomicCpu4.itb.wrAccesses                    0                       # TLB accesses on write requests
system.atomicCpu4.itb.wrMisses                      0                       # TLB misses on write requests
system.atomicCpu4.kern.inst.arm                     0                       # number of arm instructions executed
system.atomicCpu4.kern.inst.quiesce                 0                       # number of quiesce instructions executed
system.atomicCpu4.not_idle_fraction                 0                       # Percentage of non-idle cycles
system.atomicCpu4.numCycles                         0                       # number of cpu cycles simulated
system.atomicCpu4.numWorkItemsCompleted             0                       # number of work items this cpu completed
system.atomicCpu4.numWorkItemsStarted               0                       # number of work items this cpu started
system.atomicCpu4.num_busy_cycles                   0                       # Number of busy cycles
system.atomicCpu4.num_conditional_control_insts            0                       # number of instructions that are conditional controls
system.atomicCpu4.num_fp_alu_accesses               0                       # Number of float alu accesses
system.atomicCpu4.num_fp_insts                      0                       # number of float instructions
system.atomicCpu4.num_fp_register_reads             0                       # number of times the floating registers were read
system.atomicCpu4.num_fp_register_writes            0                       # number of times the floating registers were written
system.atomicCpu4.num_func_calls                    0                       # number of times a function call or return occured
system.atomicCpu4.num_idle_cycles                   0                       # Number of idle cycles
system.atomicCpu4.num_int_alu_accesses              0                       # Number of integer alu accesses
system.atomicCpu4.num_int_insts                     0                       # number of integer instructions
system.atomicCpu4.num_int_register_reads            0                       # number of times the integer registers were read
system.atomicCpu4.num_int_register_writes            0                       # number of times the integer registers were written
system.atomicCpu4.num_load_insts                    0                       # Number of load instructions
system.atomicCpu4.num_mem_refs                      0                       # number of memory refs
system.atomicCpu4.num_store_insts                   0                       # Number of store instructions
system.atomicCpu4.num_vec_alu_accesses              0                       # Number of vector alu accesses
system.atomicCpu4.num_vec_insts                     0                       # number of vector instructions
system.atomicCpu4.num_vec_register_reads            0                       # number of times the vector registers were read
system.atomicCpu4.num_vec_register_writes            0                       # number of times the vector registers were written
system.atomicCpu4.op_class::No_OpClass              0                       # Class of executed instruction
system.atomicCpu4.op_class::IntAlu                  0                       # Class of executed instruction
system.atomicCpu4.op_class::IntMult                 0                       # Class of executed instruction
system.atomicCpu4.op_class::IntDiv                  0                       # Class of executed instruction
system.atomicCpu4.op_class::FloatAdd                0                       # Class of executed instruction
system.atomicCpu4.op_class::FloatCmp                0                       # Class of executed instruction
system.atomicCpu4.op_class::FloatCvt                0                       # Class of executed instruction
system.atomicCpu4.op_class::FloatMult               0                       # Class of executed instruction
system.atomicCpu4.op_class::FloatMultAcc            0                       # Class of executed instruction
system.atomicCpu4.op_class::FloatDiv                0                       # Class of executed instruction
system.atomicCpu4.op_class::FloatMisc               0                       # Class of executed instruction
system.atomicCpu4.op_class::FloatSqrt               0                       # Class of executed instruction
system.atomicCpu4.op_class::SimdAdd                 0                       # Class of executed instruction
system.atomicCpu4.op_class::SimdAddAcc              0                       # Class of executed instruction
system.atomicCpu4.op_class::SimdAlu                 0                       # Class of executed instruction
system.atomicCpu4.op_class::SimdCmp                 0                       # Class of executed instruction
system.atomicCpu4.op_class::SimdCvt                 0                       # Class of executed instruction
system.atomicCpu4.op_class::SimdMisc                0                       # Class of executed instruction
system.atomicCpu4.op_class::SimdMult                0                       # Class of executed instruction
system.atomicCpu4.op_class::SimdMultAcc             0                       # Class of executed instruction
system.atomicCpu4.op_class::SimdShift               0                       # Class of executed instruction
system.atomicCpu4.op_class::SimdShiftAcc            0                       # Class of executed instruction
system.atomicCpu4.op_class::SimdDiv                 0                       # Class of executed instruction
system.atomicCpu4.op_class::SimdSqrt                0                       # Class of executed instruction
system.atomicCpu4.op_class::SimdFloatAdd            0                       # Class of executed instruction
system.atomicCpu4.op_class::SimdFloatAlu            0                       # Class of executed instruction
system.atomicCpu4.op_class::SimdFloatCmp            0                       # Class of executed instruction
system.atomicCpu4.op_class::SimdFloatCvt            0                       # Class of executed instruction
system.atomicCpu4.op_class::SimdFloatDiv            0                       # Class of executed instruction
system.atomicCpu4.op_class::SimdFloatMisc            0                       # Class of executed instruction
system.atomicCpu4.op_class::SimdFloatMult            0                       # Class of executed instruction
system.atomicCpu4.op_class::SimdFloatMultAcc            0                       # Class of executed instruction
system.atomicCpu4.op_class::SimdFloatSqrt            0                       # Class of executed instruction
system.atomicCpu4.op_class::SimdReduceAdd            0                       # Class of executed instruction
system.atomicCpu4.op_class::SimdReduceAlu            0                       # Class of executed instruction
system.atomicCpu4.op_class::SimdReduceCmp            0                       # Class of executed instruction
system.atomicCpu4.op_class::SimdFloatReduceAdd            0                       # Class of executed instruction
system.atomicCpu4.op_class::SimdFloatReduceCmp            0                       # Class of executed instruction
system.atomicCpu4.op_class::SimdAes                 0                       # Class of executed instruction
system.atomicCpu4.op_class::SimdAesMix              0                       # Class of executed instruction
system.atomicCpu4.op_class::SimdSha1Hash            0                       # Class of executed instruction
system.atomicCpu4.op_class::SimdSha1Hash2            0                       # Class of executed instruction
system.atomicCpu4.op_class::SimdSha256Hash            0                       # Class of executed instruction
system.atomicCpu4.op_class::SimdSha256Hash2            0                       # Class of executed instruction
system.atomicCpu4.op_class::SimdShaSigma2            0                       # Class of executed instruction
system.atomicCpu4.op_class::SimdShaSigma3            0                       # Class of executed instruction
system.atomicCpu4.op_class::SimdPredAlu             0                       # Class of executed instruction
system.atomicCpu4.op_class::MemRead                 0                       # Class of executed instruction
system.atomicCpu4.op_class::MemWrite                0                       # Class of executed instruction
system.atomicCpu4.op_class::FloatMemRead            0                       # Class of executed instruction
system.atomicCpu4.op_class::FloatMemWrite            0                       # Class of executed instruction
system.atomicCpu4.op_class::IprAccess               0                       # Class of executed instruction
system.atomicCpu4.op_class::InstPrefetch            0                       # Class of executed instruction
system.atomicCpu4.op_class::total                   0                       # Class of executed instruction
system.atomicCpu4.pwrStateResidencyTicks::OFF 19422184126249                       # Cumulative time (in ticks) in various power states
system.atomicCpu5.committedInsts                    0                       # Number of instructions committed
system.atomicCpu5.committedOps                      0                       # Number of ops (including micro ops) committed
system.atomicCpu5.dtb.rdAccesses                    0                       # TLB accesses on read requests
system.atomicCpu5.dtb.rdMisses                      0                       # TLB misses on read requests
system.atomicCpu5.dtb.walker.pwrStateResidencyTicks::UNDEFINED 19422184126249                       # Cumulative time (in ticks) in various power states
system.atomicCpu5.dtb.wrAccesses                    0                       # TLB accesses on write requests
system.atomicCpu5.dtb.wrMisses                      0                       # TLB misses on write requests
system.atomicCpu5.idle_fraction                     1                       # Percentage of idle cycles
system.atomicCpu5.itb.rdAccesses                    0                       # TLB accesses on read requests
system.atomicCpu5.itb.rdMisses                      0                       # TLB misses on read requests
system.atomicCpu5.itb.walker.pwrStateResidencyTicks::UNDEFINED 19422184126249                       # Cumulative time (in ticks) in various power states
system.atomicCpu5.itb.wrAccesses                    0                       # TLB accesses on write requests
system.atomicCpu5.itb.wrMisses                      0                       # TLB misses on write requests
system.atomicCpu5.kern.inst.arm                     0                       # number of arm instructions executed
system.atomicCpu5.kern.inst.quiesce                 0                       # number of quiesce instructions executed
system.atomicCpu5.not_idle_fraction                 0                       # Percentage of non-idle cycles
system.atomicCpu5.numCycles                         0                       # number of cpu cycles simulated
system.atomicCpu5.numWorkItemsCompleted             0                       # number of work items this cpu completed
system.atomicCpu5.numWorkItemsStarted               0                       # number of work items this cpu started
system.atomicCpu5.num_busy_cycles                   0                       # Number of busy cycles
system.atomicCpu5.num_conditional_control_insts            0                       # number of instructions that are conditional controls
system.atomicCpu5.num_fp_alu_accesses               0                       # Number of float alu accesses
system.atomicCpu5.num_fp_insts                      0                       # number of float instructions
system.atomicCpu5.num_fp_register_reads             0                       # number of times the floating registers were read
system.atomicCpu5.num_fp_register_writes            0                       # number of times the floating registers were written
system.atomicCpu5.num_func_calls                    0                       # number of times a function call or return occured
system.atomicCpu5.num_idle_cycles                   0                       # Number of idle cycles
system.atomicCpu5.num_int_alu_accesses              0                       # Number of integer alu accesses
system.atomicCpu5.num_int_insts                     0                       # number of integer instructions
system.atomicCpu5.num_int_register_reads            0                       # number of times the integer registers were read
system.atomicCpu5.num_int_register_writes            0                       # number of times the integer registers were written
system.atomicCpu5.num_load_insts                    0                       # Number of load instructions
system.atomicCpu5.num_mem_refs                      0                       # number of memory refs
system.atomicCpu5.num_store_insts                   0                       # Number of store instructions
system.atomicCpu5.num_vec_alu_accesses              0                       # Number of vector alu accesses
system.atomicCpu5.num_vec_insts                     0                       # number of vector instructions
system.atomicCpu5.num_vec_register_reads            0                       # number of times the vector registers were read
system.atomicCpu5.num_vec_register_writes            0                       # number of times the vector registers were written
system.atomicCpu5.op_class::No_OpClass              0                       # Class of executed instruction
system.atomicCpu5.op_class::IntAlu                  0                       # Class of executed instruction
system.atomicCpu5.op_class::IntMult                 0                       # Class of executed instruction
system.atomicCpu5.op_class::IntDiv                  0                       # Class of executed instruction
system.atomicCpu5.op_class::FloatAdd                0                       # Class of executed instruction
system.atomicCpu5.op_class::FloatCmp                0                       # Class of executed instruction
system.atomicCpu5.op_class::FloatCvt                0                       # Class of executed instruction
system.atomicCpu5.op_class::FloatMult               0                       # Class of executed instruction
system.atomicCpu5.op_class::FloatMultAcc            0                       # Class of executed instruction
system.atomicCpu5.op_class::FloatDiv                0                       # Class of executed instruction
system.atomicCpu5.op_class::FloatMisc               0                       # Class of executed instruction
system.atomicCpu5.op_class::FloatSqrt               0                       # Class of executed instruction
system.atomicCpu5.op_class::SimdAdd                 0                       # Class of executed instruction
system.atomicCpu5.op_class::SimdAddAcc              0                       # Class of executed instruction
system.atomicCpu5.op_class::SimdAlu                 0                       # Class of executed instruction
system.atomicCpu5.op_class::SimdCmp                 0                       # Class of executed instruction
system.atomicCpu5.op_class::SimdCvt                 0                       # Class of executed instruction
system.atomicCpu5.op_class::SimdMisc                0                       # Class of executed instruction
system.atomicCpu5.op_class::SimdMult                0                       # Class of executed instruction
system.atomicCpu5.op_class::SimdMultAcc             0                       # Class of executed instruction
system.atomicCpu5.op_class::SimdShift               0                       # Class of executed instruction
system.atomicCpu5.op_class::SimdShiftAcc            0                       # Class of executed instruction
system.atomicCpu5.op_class::SimdDiv                 0                       # Class of executed instruction
system.atomicCpu5.op_class::SimdSqrt                0                       # Class of executed instruction
system.atomicCpu5.op_class::SimdFloatAdd            0                       # Class of executed instruction
system.atomicCpu5.op_class::SimdFloatAlu            0                       # Class of executed instruction
system.atomicCpu5.op_class::SimdFloatCmp            0                       # Class of executed instruction
system.atomicCpu5.op_class::SimdFloatCvt            0                       # Class of executed instruction
system.atomicCpu5.op_class::SimdFloatDiv            0                       # Class of executed instruction
system.atomicCpu5.op_class::SimdFloatMisc            0                       # Class of executed instruction
system.atomicCpu5.op_class::SimdFloatMult            0                       # Class of executed instruction
system.atomicCpu5.op_class::SimdFloatMultAcc            0                       # Class of executed instruction
system.atomicCpu5.op_class::SimdFloatSqrt            0                       # Class of executed instruction
system.atomicCpu5.op_class::SimdReduceAdd            0                       # Class of executed instruction
system.atomicCpu5.op_class::SimdReduceAlu            0                       # Class of executed instruction
system.atomicCpu5.op_class::SimdReduceCmp            0                       # Class of executed instruction
system.atomicCpu5.op_class::SimdFloatReduceAdd            0                       # Class of executed instruction
system.atomicCpu5.op_class::SimdFloatReduceCmp            0                       # Class of executed instruction
system.atomicCpu5.op_class::SimdAes                 0                       # Class of executed instruction
system.atomicCpu5.op_class::SimdAesMix              0                       # Class of executed instruction
system.atomicCpu5.op_class::SimdSha1Hash            0                       # Class of executed instruction
system.atomicCpu5.op_class::SimdSha1Hash2            0                       # Class of executed instruction
system.atomicCpu5.op_class::SimdSha256Hash            0                       # Class of executed instruction
system.atomicCpu5.op_class::SimdSha256Hash2            0                       # Class of executed instruction
system.atomicCpu5.op_class::SimdShaSigma2            0                       # Class of executed instruction
system.atomicCpu5.op_class::SimdShaSigma3            0                       # Class of executed instruction
system.atomicCpu5.op_class::SimdPredAlu             0                       # Class of executed instruction
system.atomicCpu5.op_class::MemRead                 0                       # Class of executed instruction
system.atomicCpu5.op_class::MemWrite                0                       # Class of executed instruction
system.atomicCpu5.op_class::FloatMemRead            0                       # Class of executed instruction
system.atomicCpu5.op_class::FloatMemWrite            0                       # Class of executed instruction
system.atomicCpu5.op_class::IprAccess               0                       # Class of executed instruction
system.atomicCpu5.op_class::InstPrefetch            0                       # Class of executed instruction
system.atomicCpu5.op_class::total                   0                       # Class of executed instruction
system.atomicCpu5.pwrStateResidencyTicks::OFF 19422184126249                       # Cumulative time (in ticks) in various power states
system.atomicCpu6.committedInsts                    0                       # Number of instructions committed
system.atomicCpu6.committedOps                      0                       # Number of ops (including micro ops) committed
system.atomicCpu6.dtb.rdAccesses                    0                       # TLB accesses on read requests
system.atomicCpu6.dtb.rdMisses                      0                       # TLB misses on read requests
system.atomicCpu6.dtb.walker.pwrStateResidencyTicks::UNDEFINED 19422184126249                       # Cumulative time (in ticks) in various power states
system.atomicCpu6.dtb.wrAccesses                    0                       # TLB accesses on write requests
system.atomicCpu6.dtb.wrMisses                      0                       # TLB misses on write requests
system.atomicCpu6.idle_fraction                     1                       # Percentage of idle cycles
system.atomicCpu6.itb.rdAccesses                    0                       # TLB accesses on read requests
system.atomicCpu6.itb.rdMisses                      0                       # TLB misses on read requests
system.atomicCpu6.itb.walker.pwrStateResidencyTicks::UNDEFINED 19422184126249                       # Cumulative time (in ticks) in various power states
system.atomicCpu6.itb.wrAccesses                    0                       # TLB accesses on write requests
system.atomicCpu6.itb.wrMisses                      0                       # TLB misses on write requests
system.atomicCpu6.kern.inst.arm                     0                       # number of arm instructions executed
system.atomicCpu6.kern.inst.quiesce                 0                       # number of quiesce instructions executed
system.atomicCpu6.not_idle_fraction                 0                       # Percentage of non-idle cycles
system.atomicCpu6.numCycles                         0                       # number of cpu cycles simulated
system.atomicCpu6.numWorkItemsCompleted             0                       # number of work items this cpu completed
system.atomicCpu6.numWorkItemsStarted               0                       # number of work items this cpu started
system.atomicCpu6.num_busy_cycles                   0                       # Number of busy cycles
system.atomicCpu6.num_conditional_control_insts            0                       # number of instructions that are conditional controls
system.atomicCpu6.num_fp_alu_accesses               0                       # Number of float alu accesses
system.atomicCpu6.num_fp_insts                      0                       # number of float instructions
system.atomicCpu6.num_fp_register_reads             0                       # number of times the floating registers were read
system.atomicCpu6.num_fp_register_writes            0                       # number of times the floating registers were written
system.atomicCpu6.num_func_calls                    0                       # number of times a function call or return occured
system.atomicCpu6.num_idle_cycles                   0                       # Number of idle cycles
system.atomicCpu6.num_int_alu_accesses              0                       # Number of integer alu accesses
system.atomicCpu6.num_int_insts                     0                       # number of integer instructions
system.atomicCpu6.num_int_register_reads            0                       # number of times the integer registers were read
system.atomicCpu6.num_int_register_writes            0                       # number of times the integer registers were written
system.atomicCpu6.num_load_insts                    0                       # Number of load instructions
system.atomicCpu6.num_mem_refs                      0                       # number of memory refs
system.atomicCpu6.num_store_insts                   0                       # Number of store instructions
system.atomicCpu6.num_vec_alu_accesses              0                       # Number of vector alu accesses
system.atomicCpu6.num_vec_insts                     0                       # number of vector instructions
system.atomicCpu6.num_vec_register_reads            0                       # number of times the vector registers were read
system.atomicCpu6.num_vec_register_writes            0                       # number of times the vector registers were written
system.atomicCpu6.op_class::No_OpClass              0                       # Class of executed instruction
system.atomicCpu6.op_class::IntAlu                  0                       # Class of executed instruction
system.atomicCpu6.op_class::IntMult                 0                       # Class of executed instruction
system.atomicCpu6.op_class::IntDiv                  0                       # Class of executed instruction
system.atomicCpu6.op_class::FloatAdd                0                       # Class of executed instruction
system.atomicCpu6.op_class::FloatCmp                0                       # Class of executed instruction
system.atomicCpu6.op_class::FloatCvt                0                       # Class of executed instruction
system.atomicCpu6.op_class::FloatMult               0                       # Class of executed instruction
system.atomicCpu6.op_class::FloatMultAcc            0                       # Class of executed instruction
system.atomicCpu6.op_class::FloatDiv                0                       # Class of executed instruction
system.atomicCpu6.op_class::FloatMisc               0                       # Class of executed instruction
system.atomicCpu6.op_class::FloatSqrt               0                       # Class of executed instruction
system.atomicCpu6.op_class::SimdAdd                 0                       # Class of executed instruction
system.atomicCpu6.op_class::SimdAddAcc              0                       # Class of executed instruction
system.atomicCpu6.op_class::SimdAlu                 0                       # Class of executed instruction
system.atomicCpu6.op_class::SimdCmp                 0                       # Class of executed instruction
system.atomicCpu6.op_class::SimdCvt                 0                       # Class of executed instruction
system.atomicCpu6.op_class::SimdMisc                0                       # Class of executed instruction
system.atomicCpu6.op_class::SimdMult                0                       # Class of executed instruction
system.atomicCpu6.op_class::SimdMultAcc             0                       # Class of executed instruction
system.atomicCpu6.op_class::SimdShift               0                       # Class of executed instruction
system.atomicCpu6.op_class::SimdShiftAcc            0                       # Class of executed instruction
system.atomicCpu6.op_class::SimdDiv                 0                       # Class of executed instruction
system.atomicCpu6.op_class::SimdSqrt                0                       # Class of executed instruction
system.atomicCpu6.op_class::SimdFloatAdd            0                       # Class of executed instruction
system.atomicCpu6.op_class::SimdFloatAlu            0                       # Class of executed instruction
system.atomicCpu6.op_class::SimdFloatCmp            0                       # Class of executed instruction
system.atomicCpu6.op_class::SimdFloatCvt            0                       # Class of executed instruction
system.atomicCpu6.op_class::SimdFloatDiv            0                       # Class of executed instruction
system.atomicCpu6.op_class::SimdFloatMisc            0                       # Class of executed instruction
system.atomicCpu6.op_class::SimdFloatMult            0                       # Class of executed instruction
system.atomicCpu6.op_class::SimdFloatMultAcc            0                       # Class of executed instruction
system.atomicCpu6.op_class::SimdFloatSqrt            0                       # Class of executed instruction
system.atomicCpu6.op_class::SimdReduceAdd            0                       # Class of executed instruction
system.atomicCpu6.op_class::SimdReduceAlu            0                       # Class of executed instruction
system.atomicCpu6.op_class::SimdReduceCmp            0                       # Class of executed instruction
system.atomicCpu6.op_class::SimdFloatReduceAdd            0                       # Class of executed instruction
system.atomicCpu6.op_class::SimdFloatReduceCmp            0                       # Class of executed instruction
system.atomicCpu6.op_class::SimdAes                 0                       # Class of executed instruction
system.atomicCpu6.op_class::SimdAesMix              0                       # Class of executed instruction
system.atomicCpu6.op_class::SimdSha1Hash            0                       # Class of executed instruction
system.atomicCpu6.op_class::SimdSha1Hash2            0                       # Class of executed instruction
system.atomicCpu6.op_class::SimdSha256Hash            0                       # Class of executed instruction
system.atomicCpu6.op_class::SimdSha256Hash2            0                       # Class of executed instruction
system.atomicCpu6.op_class::SimdShaSigma2            0                       # Class of executed instruction
system.atomicCpu6.op_class::SimdShaSigma3            0                       # Class of executed instruction
system.atomicCpu6.op_class::SimdPredAlu             0                       # Class of executed instruction
system.atomicCpu6.op_class::MemRead                 0                       # Class of executed instruction
system.atomicCpu6.op_class::MemWrite                0                       # Class of executed instruction
system.atomicCpu6.op_class::FloatMemRead            0                       # Class of executed instruction
system.atomicCpu6.op_class::FloatMemWrite            0                       # Class of executed instruction
system.atomicCpu6.op_class::IprAccess               0                       # Class of executed instruction
system.atomicCpu6.op_class::InstPrefetch            0                       # Class of executed instruction
system.atomicCpu6.op_class::total                   0                       # Class of executed instruction
system.atomicCpu6.pwrStateResidencyTicks::OFF 19422184126249                       # Cumulative time (in ticks) in various power states
system.atomicCpu7.committedInsts                    0                       # Number of instructions committed
system.atomicCpu7.committedOps                      0                       # Number of ops (including micro ops) committed
system.atomicCpu7.dtb.rdAccesses                    0                       # TLB accesses on read requests
system.atomicCpu7.dtb.rdMisses                      0                       # TLB misses on read requests
system.atomicCpu7.dtb.walker.pwrStateResidencyTicks::UNDEFINED 19422184126249                       # Cumulative time (in ticks) in various power states
system.atomicCpu7.dtb.wrAccesses                    0                       # TLB accesses on write requests
system.atomicCpu7.dtb.wrMisses                      0                       # TLB misses on write requests
system.atomicCpu7.idle_fraction                     1                       # Percentage of idle cycles
system.atomicCpu7.itb.rdAccesses                    0                       # TLB accesses on read requests
system.atomicCpu7.itb.rdMisses                      0                       # TLB misses on read requests
system.atomicCpu7.itb.walker.pwrStateResidencyTicks::UNDEFINED 19422184126249                       # Cumulative time (in ticks) in various power states
system.atomicCpu7.itb.wrAccesses                    0                       # TLB accesses on write requests
system.atomicCpu7.itb.wrMisses                      0                       # TLB misses on write requests
system.atomicCpu7.kern.inst.arm                     0                       # number of arm instructions executed
system.atomicCpu7.kern.inst.quiesce                 0                       # number of quiesce instructions executed
system.atomicCpu7.not_idle_fraction                 0                       # Percentage of non-idle cycles
system.atomicCpu7.numCycles                         0                       # number of cpu cycles simulated
system.atomicCpu7.numWorkItemsCompleted             0                       # number of work items this cpu completed
system.atomicCpu7.numWorkItemsStarted               0                       # number of work items this cpu started
system.atomicCpu7.num_busy_cycles                   0                       # Number of busy cycles
system.atomicCpu7.num_conditional_control_insts            0                       # number of instructions that are conditional controls
system.atomicCpu7.num_fp_alu_accesses               0                       # Number of float alu accesses
system.atomicCpu7.num_fp_insts                      0                       # number of float instructions
system.atomicCpu7.num_fp_register_reads             0                       # number of times the floating registers were read
system.atomicCpu7.num_fp_register_writes            0                       # number of times the floating registers were written
system.atomicCpu7.num_func_calls                    0                       # number of times a function call or return occured
system.atomicCpu7.num_idle_cycles                   0                       # Number of idle cycles
system.atomicCpu7.num_int_alu_accesses              0                       # Number of integer alu accesses
system.atomicCpu7.num_int_insts                     0                       # number of integer instructions
system.atomicCpu7.num_int_register_reads            0                       # number of times the integer registers were read
system.atomicCpu7.num_int_register_writes            0                       # number of times the integer registers were written
system.atomicCpu7.num_load_insts                    0                       # Number of load instructions
system.atomicCpu7.num_mem_refs                      0                       # number of memory refs
system.atomicCpu7.num_store_insts                   0                       # Number of store instructions
system.atomicCpu7.num_vec_alu_accesses              0                       # Number of vector alu accesses
system.atomicCpu7.num_vec_insts                     0                       # number of vector instructions
system.atomicCpu7.num_vec_register_reads            0                       # number of times the vector registers were read
system.atomicCpu7.num_vec_register_writes            0                       # number of times the vector registers were written
system.atomicCpu7.op_class::No_OpClass              0                       # Class of executed instruction
system.atomicCpu7.op_class::IntAlu                  0                       # Class of executed instruction
system.atomicCpu7.op_class::IntMult                 0                       # Class of executed instruction
system.atomicCpu7.op_class::IntDiv                  0                       # Class of executed instruction
system.atomicCpu7.op_class::FloatAdd                0                       # Class of executed instruction
system.atomicCpu7.op_class::FloatCmp                0                       # Class of executed instruction
system.atomicCpu7.op_class::FloatCvt                0                       # Class of executed instruction
system.atomicCpu7.op_class::FloatMult               0                       # Class of executed instruction
system.atomicCpu7.op_class::FloatMultAcc            0                       # Class of executed instruction
system.atomicCpu7.op_class::FloatDiv                0                       # Class of executed instruction
system.atomicCpu7.op_class::FloatMisc               0                       # Class of executed instruction
system.atomicCpu7.op_class::FloatSqrt               0                       # Class of executed instruction
system.atomicCpu7.op_class::SimdAdd                 0                       # Class of executed instruction
[...]
system.timingCpu7.iq.FU_type_0::SimdFloatDiv            0      0.00%     80.39% # Type of FU issued
system.timingCpu7.iq.FU_type_0::SimdFloatMisc            0      0.00%     80.39% # Type of FU issued
system.timingCpu7.iq.FU_type_0::SimdFloatMult            0      0.00%     80.39% # Type of FU issued
system.timingCpu7.iq.FU_type_0::SimdFloatMultAcc            0      0.00%     80.39% # Type of FU issued
system.timingCpu7.iq.FU_type_0::SimdFloatSqrt            0      0.00%     80.39% # Type of FU issued
system.timingCpu7.iq.FU_type_0::SimdReduceAdd            0      0.00%     80.39% # Type of FU issued
system.timingCpu7.iq.FU_type_0::SimdReduceAlu            0      0.00%     80.39% # Type of FU issued
system.timingCpu7.iq.FU_type_0::SimdReduceCmp            0      0.00%     80.39% # Type of FU issued
system.timingCpu7.iq.FU_type_0::SimdFloatReduceAdd            0      0.00%     80.39% # Type of FU issued
system.timingCpu7.iq.FU_type_0::SimdFloatReduceCmp            0      0.00%     80.39% # Type of FU issued
system.timingCpu7.iq.FU_type_0::SimdAes             0      0.00%     80.39% # Type of FU issued
system.timingCpu7.iq.FU_type_0::SimdAesMix            0      0.00%     80.39% # Type of FU issued
system.timingCpu7.iq.FU_type_0::SimdSha1Hash            0      0.00%     80.39% # Type of FU issued
system.timingCpu7.iq.FU_type_0::SimdSha1Hash2            0      0.00%     80.39% # Type of FU issued
system.timingCpu7.iq.FU_type_0::SimdSha256Hash            0      0.00%     80.39% # Type of FU issued
system.timingCpu7.iq.FU_type_0::SimdSha256Hash2            0      0.00%     80.39% # Type of FU issued
system.timingCpu7.iq.FU_type_0::SimdShaSigma2            0      0.00%     80.39% # Type of FU issued
system.timingCpu7.iq.FU_type_0::SimdShaSigma3            0      0.00%     80.39% # Type of FU issued
system.timingCpu7.iq.FU_type_0::SimdPredAlu            0      0.00%     80.39% # Type of FU issued
system.timingCpu7.iq.FU_type_0::MemRead         32493     13.19%     93.58% # Type of FU issued
system.timingCpu7.iq.FU_type_0::MemWrite        15599      6.33%     99.92% # Type of FU issued
system.timingCpu7.iq.FU_type_0::FloatMemRead           94      0.04%     99.95% # Type of FU issued
system.timingCpu7.iq.FU_type_0::FloatMemWrite          113      0.05%    100.00% # Type of FU issued
system.timingCpu7.iq.FU_type_0::IprAccess            0      0.00%    100.00% # Type of FU issued
system.timingCpu7.iq.FU_type_0::InstPrefetch            0      0.00%    100.00% # Type of FU issued
system.timingCpu7.iq.FU_type_0::total          246305                       # Type of FU issued
system.timingCpu7.iq.fp_alu_accesses              530                       # Number of floating point alu accesses
system.timingCpu7.iq.fp_inst_queue_reads         1046                       # Number of floating instruction queue reads
system.timingCpu7.iq.fp_inst_queue_wakeup_accesses          469                       # Number of floating instruction queue wakeup accesses
system.timingCpu7.iq.fp_inst_queue_writes          652                       # Number of floating instruction queue writes
system.timingCpu7.iq.fu_busy_cnt                10779                       # FU busy when requested
system.timingCpu7.iq.fu_busy_rate            0.043763                       # FU busy rate (busy events/executed inst)
system.timingCpu7.iq.fu_full::No_OpClass            0      0.00%      0.00% # attempts to use FU when none available
system.timingCpu7.iq.fu_full::IntAlu             9957     92.37%     92.37% # attempts to use FU when none available
system.timingCpu7.iq.fu_full::IntMult               0      0.00%     92.37% # attempts to use FU when none available
system.timingCpu7.iq.fu_full::IntDiv                0      0.00%     92.37% # attempts to use FU when none available
system.timingCpu7.iq.fu_full::FloatAdd              0      0.00%     92.37% # attempts to use FU when none available
system.timingCpu7.iq.fu_full::FloatCmp              0      0.00%     92.37% # attempts to use FU when none available
system.timingCpu7.iq.fu_full::FloatCvt              3      0.03%     92.40% # attempts to use FU when none available
system.timingCpu7.iq.fu_full::FloatMult             0      0.00%     92.40% # attempts to use FU when none available
system.timingCpu7.iq.fu_full::FloatMultAcc            0      0.00%     92.40% # attempts to use FU when none available
system.timingCpu7.iq.fu_full::FloatDiv              0      0.00%     92.40% # attempts to use FU when none available
system.timingCpu7.iq.fu_full::FloatMisc             0      0.00%     92.40% # attempts to use FU when none available
system.timingCpu7.iq.fu_full::FloatSqrt             0      0.00%     92.40% # attempts to use FU when none available
system.timingCpu7.iq.fu_full::SimdAdd               0      0.00%     92.40% # attempts to use FU when none available
system.timingCpu7.iq.fu_full::SimdAddAcc            0      0.00%     92.40% # attempts to use FU when none available
system.timingCpu7.iq.fu_full::SimdAlu               2      0.02%     92.42% # attempts to use FU when none available
system.timingCpu7.iq.fu_full::SimdCmp               0      0.00%     92.42% # attempts to use FU when none available
system.timingCpu7.iq.fu_full::SimdCvt               0      0.00%     92.42% # attempts to use FU when none available
system.timingCpu7.iq.fu_full::SimdMisc              0      0.00%     92.42% # attempts to use FU when none available
system.timingCpu7.iq.fu_full::SimdMult              0      0.00%     92.42% # attempts to use FU when none available
system.timingCpu7.iq.fu_full::SimdMultAcc            0      0.00%     92.42% # attempts to use FU when none available
system.timingCpu7.iq.fu_full::SimdShift             0      0.00%     92.42% # attempts to use FU when none available
system.timingCpu7.iq.fu_full::SimdShiftAcc            0      0.00%     92.42% # attempts to use FU when none available
system.timingCpu7.iq.fu_full::SimdDiv               0      0.00%     92.42% # attempts to use FU when none available
system.timingCpu7.iq.fu_full::SimdSqrt              0      0.00%     92.42% # attempts to use FU when none available
system.timingCpu7.iq.fu_full::SimdFloatAdd            0      0.00%     92.42% # attempts to use FU when none available
system.timingCpu7.iq.fu_full::SimdFloatAlu            0      0.00%     92.42% # attempts to use FU when none available
system.timingCpu7.iq.fu_full::SimdFloatCmp            0      0.00%     92.42% # attempts to use FU when none available
system.timingCpu7.iq.fu_full::SimdFloatCvt            0      0.00%     92.42% # attempts to use FU when none available
system.timingCpu7.iq.fu_full::SimdFloatDiv            0      0.00%     92.42% # attempts to use FU when none available
system.timingCpu7.iq.fu_full::SimdFloatMisc            0      0.00%     92.42% # attempts to use FU when none available
system.timingCpu7.iq.fu_full::SimdFloatMult            0      0.00%     92.42% # attempts to use FU when none available
system.timingCpu7.iq.fu_full::SimdFloatMultAcc            0      0.00%     92.42% # attempts to use FU when none available
system.timingCpu7.iq.fu_full::SimdFloatSqrt            0      0.00%     92.42% # attempts to use FU when none available
system.timingCpu7.iq.fu_full::SimdReduceAdd            0      0.00%     92.42% # attempts to use FU when none available
system.timingCpu7.iq.fu_full::SimdReduceAlu            0      0.00%     92.42% # attempts to use FU when none available
system.timingCpu7.iq.fu_full::SimdReduceCmp            0      0.00%     92.42% # attempts to use FU when none available
system.timingCpu7.iq.fu_full::SimdFloatReduceAdd            0      0.00%     92.42% # attempts to use FU when none available
system.timingCpu7.iq.fu_full::SimdFloatReduceCmp            0      0.00%     92.42% # attempts to use FU when none available
system.timingCpu7.iq.fu_full::SimdAes               0      0.00%     92.42% # attempts to use FU when none available
system.timingCpu7.iq.fu_full::SimdAesMix            0      0.00%     92.42% # attempts to use FU when none available
system.timingCpu7.iq.fu_full::SimdSha1Hash            0      0.00%     92.42% # attempts to use FU when none available
system.timingCpu7.iq.fu_full::SimdSha1Hash2            0      0.00%     92.42% # attempts to use FU when none available
system.timingCpu7.iq.fu_full::SimdSha256Hash            0      0.00%     92.42% # attempts to use FU when none available
system.timingCpu7.iq.fu_full::SimdSha256Hash2            0      0.00%     92.42% # attempts to use FU when none available
system.timingCpu7.iq.fu_full::SimdShaSigma2            0      0.00%     92.42% # attempts to use FU when none available
system.timingCpu7.iq.fu_full::SimdShaSigma3            0      0.00%     92.42% # attempts to use FU when none available
system.timingCpu7.iq.fu_full::SimdPredAlu            0      0.00%     92.42% # attempts to use FU when none available
system.timingCpu7.iq.fu_full::MemRead             444      4.12%     96.54% # attempts to use FU when none available
system.timingCpu7.iq.fu_full::MemWrite            349      3.24%     99.78% # attempts to use FU when none available
system.timingCpu7.iq.fu_full::FloatMemRead           10      0.09%     99.87% # attempts to use FU when none available
system.timingCpu7.iq.fu_full::FloatMemWrite           14      0.13%    100.00% # attempts to use FU when none available
system.timingCpu7.iq.fu_full::IprAccess             0      0.00%    100.00% # attempts to use FU when none available
system.timingCpu7.iq.fu_full::InstPrefetch            0      0.00%    100.00% # attempts to use FU when none available
system.timingCpu7.iq.int_alu_accesses          251241                       # Number of integer alu accesses
system.timingCpu7.iq.int_inst_queue_reads       723225                       # Number of integer instruction queue reads
system.timingCpu7.iq.int_inst_queue_wakeup_accesses       232719                       # Number of integer instruction queue wakeup accesses
system.timingCpu7.iq.int_inst_queue_writes       383019                       # Number of integer instruction queue writes
system.timingCpu7.iq.iqInstsAdded              278043                       # Number of instructions added to the IQ (excludes non-spec)
system.timingCpu7.iq.iqInstsIssued             246305                       # Number of instructions issued
system.timingCpu7.iq.iqNonSpecInstsAdded         3338                       # Number of non-speculative instructions added to the IQ
system.timingCpu7.iq.iqSquashedInstsExamined       102160                       # Number of squashed instructions iterated over during squash; mainly for profiling
system.timingCpu7.iq.iqSquashedInstsIssued         1529                       # Number of squashed instructions issued
system.timingCpu7.iq.iqSquashedNonSpecRemoved         1677                       # Number of squashed non-spec instructions that were removed
system.timingCpu7.iq.iqSquashedOperandsExamined       136151                       # Number of squashed operands that are examined and possibly removed from graph
system.timingCpu7.iq.issued_per_cycle::samples       219353                       # Number of insts issued each cycle
system.timingCpu7.iq.issued_per_cycle::mean     1.122870                       # Number of insts issued each cycle
system.timingCpu7.iq.issued_per_cycle::stdev     2.099653                       # Number of insts issued each cycle
system.timingCpu7.iq.issued_per_cycle::underflows            0      0.00%      0.00% # Number of insts issued each cycle
system.timingCpu7.iq.issued_per_cycle::0       151583     69.10%     69.10% # Number of insts issued each cycle
system.timingCpu7.iq.issued_per_cycle::1        15184      6.92%     76.03% # Number of insts issued each cycle
system.timingCpu7.iq.issued_per_cycle::2        15170      6.92%     82.94% # Number of insts issued each cycle
system.timingCpu7.iq.issued_per_cycle::3         5842      2.66%     85.61% # Number of insts issued each cycle
system.timingCpu7.iq.issued_per_cycle::4         7124      3.25%     88.85% # Number of insts issued each cycle
system.timingCpu7.iq.issued_per_cycle::5         6338      2.89%     91.74% # Number of insts issued each cycle
system.timingCpu7.iq.issued_per_cycle::6         5476      2.50%     94.24% # Number of insts issued each cycle
system.timingCpu7.iq.issued_per_cycle::7        10875      4.96%     99.20% # Number of insts issued each cycle
system.timingCpu7.iq.issued_per_cycle::8         1761      0.80%    100.00% # Number of insts issued each cycle
system.timingCpu7.iq.issued_per_cycle::overflows            0      0.00%    100.00% # Number of insts issued each cycle
system.timingCpu7.iq.issued_per_cycle::min_value            0                       # Number of insts issued each cycle
system.timingCpu7.iq.issued_per_cycle::max_value            8                       # Number of insts issued each cycle
system.timingCpu7.iq.issued_per_cycle::total       219353                       # Number of insts issued each cycle
system.timingCpu7.iq.rate                    0.606950                       # Inst issue rate
system.timingCpu7.iq.vec_alu_accesses               0                       # Number of vector alu accesses
system.timingCpu7.iq.vec_inst_queue_reads            0                       # Number of vector instruction queue reads
system.timingCpu7.iq.vec_inst_queue_wakeup_accesses            0                       # Number of vector instruction queue wakeup accesses
system.timingCpu7.iq.vec_inst_queue_writes            0                       # Number of vector instruction queue writes
system.timingCpu7.itb.rdAccesses                    0                       # TLB accesses on read requests
system.timingCpu7.itb.rdMisses                      0                       # TLB misses on read requests
system.timingCpu7.itb.walker.pwrStateResidencyTicks::UNDEFINED 19422184126249                       # Cumulative time (in ticks) in various power states
system.timingCpu7.itb.wrAccesses                17814                       # TLB accesses on write requests
system.timingCpu7.itb.wrMisses                    219                       # TLB misses on write requests
system.timingCpu7.kern.inst.arm                     0                       # number of arm instructions executed
system.timingCpu7.kern.inst.quiesce                 0                       # number of quiesce instructions executed
system.timingCpu7.memDep0.conflictingLoads         8358                       # Number of conflicting loads.
system.timingCpu7.memDep0.conflictingStores         7305                       # Number of conflicting stores.
system.timingCpu7.memDep0.insertedLoads         38257                       # Number of loads inserted to the mem dependence unit.
system.timingCpu7.memDep0.insertedStores        19816                       # Number of stores inserted to the mem dependence unit.
system.timingCpu7.misc_regfile_reads           112561                       # number of misc regfile reads
system.timingCpu7.misc_regfile_writes             767                       # number of misc regfile writes
system.timingCpu7.numCycles                    405808                       # number of cpu cycles simulated
system.timingCpu7.numPwrStateTransitions           21                       # Number of power state transitions
system.timingCpu7.numWorkItemsCompleted             0                       # number of work items this cpu completed
system.timingCpu7.numWorkItemsStarted               0                       # number of work items this cpu started
system.timingCpu7.pwrStateClkGateDist::samples           11                       # Distribution of time spent in the clock gated state
system.timingCpu7.pwrStateClkGateDist::mean 499817167.545455                       # Distribution of time spent in the clock gated state
system.timingCpu7.pwrStateClkGateDist::stdev 395475016.544128                       # Distribution of time spent in the clock gated state
system.timingCpu7.pwrStateClkGateDist::1000-5e+10           11    100.00%    100.00% # Distribution of time spent in the clock gated state
system.timingCpu7.pwrStateClkGateDist::min_value      3612718                       # Distribution of time spent in the clock gated state
system.timingCpu7.pwrStateClkGateDist::max_value   1008825165                       # Distribution of time spent in the clock gated state
system.timingCpu7.pwrStateClkGateDist::total           11                       # Distribution of time spent in the clock gated state
system.timingCpu7.pwrStateResidencyTicks::ON    113727824                       # Cumulative time (in ticks) in various power states
system.timingCpu7.pwrStateResidencyTicks::CLK_GATED   5497988843                       # Cumulative time (in ticks) in various power states
system.timingCpu7.pwrStateResidencyTicks::OFF 19416572409582                       # Cumulative time (in ticks) in various power states
system.timingCpu7.quiesceCycles              15972612                       # Total number of cycles that CPU has spent quiesced or waiting for an interrupt
system.timingCpu7.rename.BlockCycles            47419                       # Number of cycles rename is blocking
system.timingCpu7.rename.CommittedMaps         171714                       # Number of HB maps that are committed
system.timingCpu7.rename.IQFullEvents            2873                       # Number of times rename has blocked due to IQ full
system.timingCpu7.rename.IdleCycles             62301                       # Number of cycles rename is idle
system.timingCpu7.rename.LQFullEvents              89                       # Number of times rename has blocked due to LQ full
system.timingCpu7.rename.ROBFullEvents            285                       # Number of times rename has blocked due to ROB full
system.timingCpu7.rename.RenameLookups         753981                       # Number of register rename lookups that rename has made
system.timingCpu7.rename.RenamedInsts          315225                       # Number of instructions processed by rename
system.timingCpu7.rename.RenamedOperands       307828                       # Number of destination operands rename has renamed
system.timingCpu7.rename.RunCycles              48495                       # Number of cycles rename is running
system.timingCpu7.rename.SQFullEvents           15605                       # Number of times rename has blocked due to SQ full
system.timingCpu7.rename.SquashCycles            4897                       # Number of cycles rename is squashing
system.timingCpu7.rename.UnblockCycles          20389                       # Number of cycles rename is unblocking
system.timingCpu7.rename.UndoneMaps            136114                       # Number of HB maps that are undone due to squashing
system.timingCpu7.rename.fp_rename_lookups          618                       # Number of floating rename lookups
system.timingCpu7.rename.int_rename_lookups       436168                       # Number of integer rename lookups
system.timingCpu7.rename.serializeStallCycles        35850                       # count of cycles rename stalled for serializing inst
system.timingCpu7.rename.serializingInsts         1244                       # count of serializing insts renamed
system.timingCpu7.rename.skidInsts              24482                       # count of insts added to the skid buffer
system.timingCpu7.rename.tempSerializingInsts         1231                       # count of temporary serializing insts renamed
system.timingCpu7.rob.rob_reads                479257                       # The number of ROB reads
system.timingCpu7.rob.rob_writes               579735                       # The number of ROB writes
system.timingCpu7.timesIdled                     1154                       # Number of times that the entire CPU went into an idle state and unscheduled itself

---------- End Simulation Statistics   ----------
