
---------- Begin Simulation Statistics ----------
final_tick                               16909915053439                       # Number of ticks from beginning of simulation (restored from checkpoints and never reset)
host_inst_rate                               13942343                       # Simulator instruction rate (inst/s)
host_mem_usage                                9454732                       # Number of bytes of host memory used
host_op_rate                                 14029620                       # Simulator op (including micro ops) rate (op/s)
host_seconds                                   278.29                       # Real time elapsed on the host
host_tick_rate                            60763896871                       # Simulator tick rate (ticks/s)
sim_freq                                 1000000000000                       # Frequency of simulated ticks
sim_insts                                  3879996633                       # Number of instructions simulated
sim_ops                                    3904286355                       # Number of ops (including micro ops) simulated
sim_seconds                                 16.909915                       # Number of seconds simulated
sim_ticks                                16909915053439                       # Number of ticks simulated
system.apicbridge.pwrStateResidencyTicks::UNDEFINED 16909915053439                       # Cumulative time (in ticks) in various power states
system.atomicCpu0.committedInsts                    0                       # Number of instructions committed
system.atomicCpu0.committedOps                      0                       # Number of ops (including micro ops) committed
system.atomicCpu0.dtb.rdAccesses                    0                       # TLB accesses on read requests
system.atomicCpu0.dtb.rdMisses                      0                       # TLB misses on read requests
system.atomicCpu0.dtb.walker.pwrStateResidencyTicks::UNDEFINED 16909915053439                       # Cumulative time (in ticks) in various power states
system.atomicCpu0.dtb.wrAccesses                    0                       # TLB accesses on write requests
system.atomicCpu0.dtb.wrMisses                      0                       # TLB misses on write requests
system.atomicCpu0.idle_fraction                     1                       # Percentage of idle cycles
system.atomicCpu0.itb.rdAccesses                    0                       # TLB accesses on read requests
system.atomicCpu0.itb.rdMisses                      0                       # TLB misses on read requests
system.atomicCpu0.itb.walker.pwrStateResidencyTicks::UNDEFINED 16909915053439                       # Cumulative time (in ticks) in various power states
system.atomicCpu0.itb.wrAccesses                    0                       # TLB accesses on write requests
system.atomicCpu0.itb.wrMisses                      0                       # TLB misses on write requests
system.atomicCpu0.kern.inst.arm                     0                       # number of arm instructions executed
system.atomicCpu0.kern.inst.quiesce                 0                       # number of quiesce instructions executed
system.atomicCpu0.not_idle_fraction                 0                       # Percentage of non-idle cycles
system.atomicCpu0.numCycles                         0                       # number of cpu cycles simulated
system.atomicCpu0.numWorkItemsCompleted             0                       # number of work items this cpu completed
system.atomicCpu0.numWorkItemsStarted               0                       # number of work items this cpu started
system.atomicCpu0.num_busy_cycles                   0                       # Number of busy cycles
system.atomicCpu0.num_conditional_control_insts            0                       # number of instructions that are conditional controls
system.atomicCpu0.num_fp_alu_accesses               0                       # Number of float alu accesses
system.atomicCpu0.num_fp_insts                      0                       # number of float instructions
system.atomicCpu0.num_fp_register_reads             0                       # number of times the floating registers were read
system.atomicCpu0.num_fp_register_writes            0                       # number of times the floating registers were written
system.atomicCpu0.num_func_calls                    0                       # number of times a function call or return occured
system.atomicCpu0.num_idle_cycles                   0                       # Number of idle cycles
system.atomicCpu0.num_int_alu_accesses              0                       # Number of integer alu accesses
system.atomicCpu0.num_int_insts                     0                       # number of integer instructions
system.atomicCpu0.num_int_register_reads            0                       # number of times the integer registers were read
system.atomicCpu0.num_int_register_writes            0                       # number of times the integer registers were written
system.atomicCpu0.num_load_insts                    0                       # Number of load instructions
system.atomicCpu0.num_mem_refs                      0                       # number of memory refs
system.atomicCpu0.num_store_insts                   0                       # Number of store instructions
system.atomicCpu0.num_vec_alu_accesses              0                       # Number of vector alu accesses
system.atomicCpu0.num_vec_insts                     0                       # number of vector instructions
system.atomicCpu0.num_vec_register_reads            0                       # number of times the vector registers were read
system.atomicCpu0.num_vec_register_writes            0                       # number of times the vector registers were written
system.atomicCpu0.op_class::No_OpClass              0                       # Class of executed instruction
system.atomicCpu0.op_class::IntAlu                  0                       # Class of executed instruction
system.atomicCpu0.op_class::IntMult                 0                       # Class of executed instruction
system.atomicCpu0.op_class::IntDiv                  0                       # Class of executed instruction
system.atomicCpu0.op_class::FloatAdd                0                       # Class of executed instruction
system.atomicCpu0.op_class::FloatCmp                0                       # Class of executed instruction
system.atomicCpu0.op_class::FloatCvt                0                       # Class of executed instruction
system.atomicCpu0.op_class::FloatMult               0                       # Class of executed instruction
system.atomicCpu0.op_class::FloatMultAcc            0                       # Class of executed instruction
system.atomicCpu0.op_class::FloatDiv                0                       # Class of executed instruction
system.atomicCpu0.op_class::FloatMisc               0                       # Class of executed instruction
system.atomicCpu0.op_class::FloatSqrt               0                       # Class of executed instruction
system.atomicCpu0.op_class::SimdAdd                 0                       # Class of executed instruction
system.atomicCpu0.op_class::SimdAddAcc              0                       # Class of executed instruction
system.atomicCpu0.op_class::SimdAlu                 0                       # Class of executed instruction
system.atomicCpu0.op_class::SimdCmp                 0                       # Class of executed instruction
system.atomicCpu0.op_class::SimdCvt                 0                       # Class of executed instruction
system.atomicCpu0.op_class::SimdMisc                0                       # Class of executed instruction
system.atomicCpu0.op_class::SimdMult                0                       # Class of executed instruction
system.atomicCpu0.op_class::SimdMultAcc             0                       # Class of executed instruction
system.atomicCpu0.op_class::SimdShift               0                       # Class of executed instruction
system.atomicCpu0.op_class::SimdShiftAcc            0                       # Class of executed instruction
system.atomicCpu0.op_class::SimdDiv                 0                       # Class of executed instruction
system.atomicCpu0.op_class::SimdSqrt                0                       # Class of executed instruction
system.atomicCpu0.op_class::SimdFloatAdd            0                       # Class of executed instruction
system.atomicCpu0.op_class::SimdFloatAlu            0                       # Class of executed instruction
system.atomicCpu0.op_class::SimdFloatCmp            0                       # Class of executed instruction
system.atomicCpu0.op_class::SimdFloatCvt            0                       # Class of executed instruction
system.atomicCpu0.op_class::SimdFloatDiv            0                       # Class of executed instruction
system.atomicCpu0.op_class::SimdFloatMisc            0                       # Class of executed instruction
system.atomicCpu0.op_class::SimdFloatMult            0                       # Class of executed instruction
system.atomicCpu0.op_class::SimdFloatMultAcc            0                       # Class of executed instruction
system.atomicCpu0.op_class::SimdFloatSqrt            0                       # Class of executed instruction
system.atomicCpu0.op_class::SimdReduceAdd            0                       # Class of executed instruction
system.atomicCpu0.op_class::SimdReduceAlu            0                       # Class of executed instruction
system.atomicCpu0.op_class::SimdReduceCmp            0                       # Class of executed instruction
system.atomicCpu0.op_class::SimdFloatReduceAdd            0                       # Class of executed instruction
system.atomicCpu0.op_class::SimdFloatReduceCmp            0                       # Class of executed instruction
system.atomicCpu0.op_class::SimdAes                 0                       # Class of executed instruction
system.atomicCpu0.op_class::SimdAesMix              0                       # Class of executed instruction
system.atomicCpu0.op_class::SimdSha1Hash            0                       # Class of executed instruction
system.atomicCpu0.op_class::SimdSha1Hash2            0                       # Class of executed instruction
system.atomicCpu0.op_class::SimdSha256Hash            0                       # Class of executed instruction
system.atomicCpu0.op_class::SimdSha256Hash2            0                       # Class of executed instruction
system.atomicCpu0.op_class::SimdShaSigma2            0                       # Class of executed instruction
system.atomicCpu0.op_class::SimdShaSigma3            0                       # Class of executed instruction
system.atomicCpu0.op_class::SimdPredAlu             0                       # Class of executed instruction
system.atomicCpu0.op_class::MemRead                 0                       # Class of executed instruction
system.atomicCpu0.op_class::MemWrite                0                       # Class of executed instruction
system.atomicCpu0.op_class::FloatMemRead            0                       # Class of executed instruction
system.atomicCpu0.op_class::FloatMemWrite            0                       # Class of executed instruction
system.atomicCpu0.op_class::IprAccess               0                       # Class of executed instruction
system.atomicCpu0.op_class::InstPrefetch            0                       # Class of executed instruction
system.atomicCpu0.op_class::total                   0                       # Class of executed instruction
system.atomicCpu0.pwrStateResidencyTicks::OFF 16909915053439                       # Cumulative time (in ticks) in various power states
system.atomicCpu1.committedInsts                    0                       # Number of instructions committed
system.atomicCpu1.committedOps                      0                       # Number of ops (including micro ops) committed
system.atomicCpu1.dtb.rdAccesses                    0                       # TLB accesses on read requests
system.atomicCpu1.dtb.rdMisses                      0                       # TLB misses on read requests
system.atomicCpu1.dtb.walker.pwrStateResidencyTicks::UNDEFINED 16909915053439                       # Cumulative time (in ticks) in various power states
system.atomicCpu1.dtb.wrAccesses                    0                       # TLB accesses on write requests
system.atomicCpu1.dtb.wrMisses                      0                       # TLB misses on write requests
system.atomicCpu1.idle_fraction                     1                       # Percentage of idle cycles
system.atomicCpu1.itb.rdAccesses                    0                       # TLB accesses on read requests
system.atomicCpu1.itb.rdMisses                      0                       # TLB misses on read requests
system.atomicCpu1.itb.walker.pwrStateResidencyTicks::UNDEFINED 16909915053439                       # Cumulative time (in ticks) in various power states
system.atomicCpu1.itb.wrAccesses                    0                       # TLB accesses on write requests
system.atomicCpu1.itb.wrMisses                      0                       # TLB misses on write requests
system.atomicCpu1.kern.inst.arm                     0                       # number of arm instructions executed
system.atomicCpu1.kern.inst.quiesce                 0                       # number of quiesce instructions executed
system.atomicCpu1.not_idle_fraction                 0                       # Percentage of non-idle cycles
system.atomicCpu1.numCycles                         0                       # number of cpu cycles simulated
system.atomicCpu1.numWorkItemsCompleted             0                       # number of work items this cpu completed
system.atomicCpu1.numWorkItemsStarted               0                       # number of work items this cpu started
system.atomicCpu1.num_busy_cycles                   0                       # Number of busy cycles
system.atomicCpu1.num_conditional_control_insts            0                       # number of instructions that are conditional controls
system.atomicCpu1.num_fp_alu_accesses               0                       # Number of float alu accesses
system.atomicCpu1.num_fp_insts                      0                       # number of float instructions
system.atomicCpu1.num_fp_register_reads             0                       # number of times the floating registers were read
system.atomicCpu1.num_fp_register_writes            0                       # number of times the floating registers were written
system.atomicCpu1.num_func_calls                    0                       # number of times a function call or return occured
system.atomicCpu1.num_idle_cycles                   0                       # Number of idle cycles
system.atomicCpu1.num_int_alu_accesses              0                       # Number of integer alu accesses
system.atomicCpu1.num_int_insts                     0                       # number of integer instructions
system.atomicCpu1.num_int_register_reads            0                       # number of times the integer registers were read
system.atomicCpu1.num_int_register_writes            0                       # number of times the integer registers were written
system.atomicCpu1.num_load_insts                    0                       # Number of load instructions
system.atomicCpu1.num_mem_refs                      0                       # number of memory refs
system.atomicCpu1.num_store_insts                   0                       # Number of store instructions
system.atomicCpu1.num_vec_alu_accesses              0                       # Number of vector alu accesses
system.atomicCpu1.num_vec_insts                     0                       # number of vector instructions
system.atomicCpu1.num_vec_register_reads            0                       # number of times the vector registers were read
system.atomicCpu1.num_vec_register_writes            0                       # number of times the vector registers were written
system.atomicCpu1.op_class::No_OpClass              0                       # Class of executed instruction
system.atomicCpu1.op_class::IntAlu                  0                       # Class of executed instruction
system.atomicCpu1.op_class::IntMult                 0                       # Class of executed instruction
system.atomicCpu1.op_class::IntDiv                  0                       # Class of executed instruction
system.atomicCpu1.op_class::FloatAdd                0                       # Class of executed instruction
system.atomicCpu1.op_class::FloatCmp                0                       # Class of executed instruction
system.atomicCpu1.op_class::FloatCvt                0                       # Class of executed instruction
system.atomicCpu1.op_class::FloatMult               0                       # Class of executed instruction
system.atomicCpu1.op_class::FloatMultAcc            0                       # Class of executed instruction
system.atomicCpu1.op_class::FloatDiv                0                       # Class of executed instruction
system.atomicCpu1.op_class::FloatMisc               0                       # Class of executed instruction
system.atomicCpu1.op_class::FloatSqrt               0                       # Class of executed instruction
system.atomicCpu1.op_class::SimdAdd                 0                       # Class of executed instruction
system.atomicCpu1.op_class::SimdAddAcc              0                       # Class of executed instruction
system.atomicCpu1.op_class::SimdAlu                 0                       # Class of executed instruction
system.atomicCpu1.op_class::SimdCmp                 0                       # Class of executed instruction
system.atomicCpu1.op_class::SimdCvt                 0                       # Class of executed instruction
system.atomicCpu1.op_class::SimdMisc                0                       # Class of executed instruction
system.atomicCpu1.op_class::SimdMult                0                       # Class of executed instruction
system.atomicCpu1.op_class::SimdMultAcc             0                       # Class of executed instruction
system.atomicCpu1.op_class::SimdShift               0                       # Class of executed instruction
system.atomicCpu1.op_class::SimdShiftAcc            0                       # Class of executed instruction
system.atomicCpu1.op_class::SimdDiv                 0                       # Class of executed instruction
system.atomicCpu1.op_class::SimdSqrt                0                       # Class of executed instruction
system.atomicCpu1.op_class::SimdFloatAdd            0                       # Class of executed instruction
system.atomicCpu1.op_class::SimdFloatAlu            0                       # Class of executed instruction
system.atomicCpu1.op_class::SimdFloatCmp            0                       # Class of executed instruction
system.atomicCpu1.op_class::SimdFloatCvt            0                       # Class of executed instruction
system.atomicCpu1.op_class::SimdFloatDiv            0                       # Class of executed instruction
system.atomicCpu1.op_class::SimdFloatMisc            0                       # Class of executed instruction
system.atomicCpu1.op_class::SimdFloatMult            0                       # Class of executed instruction
system.atomicCpu1.op_class::SimdFloatMultAcc            0                       # Class of executed instruction
system.atomicCpu1.op_class::SimdFloatSqrt            0                       # Class of executed instruction
system.atomicCpu1.op_class::SimdReduceAdd            0                       # Class of executed instruction
system.atomicCpu1.op_class::SimdReduceAlu            0                       # Class of executed instruction
system.atomicCpu1.op_class::SimdReduceCmp            0                       # Class of executed instruction
system.atomicCpu1.op_class::SimdFloatReduceAdd            0                       # Class of executed instruction
system.atomicCpu1.op_class::SimdFloatReduceCmp            0                       # Class of executed instruction
system.atomicCpu1.op_class::SimdAes                 0                       # Class of executed instruction
system.atomicCpu1.op_class::SimdAesMix              0                       # Class of executed instruction
system.atomicCpu1.op_class::SimdSha1Hash            0                       # Class of executed instruction
system.atomicCpu1.op_class::SimdSha1Hash2            0                       # Class of executed instruction
system.atomicCpu1.op_class::SimdSha256Hash            0                       # Class of executed instruction
system.atomicCpu1.op_class::SimdSha256Hash2            0                       # Class of executed instruction
system.atomicCpu1.op_class::SimdShaSigma2            0                       # Class of executed instruction
system.atomicCpu1.op_class::SimdShaSigma3            0                       # Class of executed instruction
system.atomicCpu1.op_class::SimdPredAlu             0                       # Class of executed instruction
system.atomicCpu1.op_class::MemRead                 0                       # Class of executed instruction
system.atomicCpu1.op_class::MemWrite                0                       # Class of executed instruction
system.atomicCpu1.op_class::FloatMemRead            0                       # Class of executed instruction
system.atomicCpu1.op_class::FloatMemWrite            0                       # Class of executed instruction
system.atomicCpu1.op_class::IprAccess               0                       # Class of executed instruction
system.atomicCpu1.op_class::InstPrefetch            0                       # Class of executed instruction
system.atomicCpu1.op_class::total                   0                       # Class of executed instruction
system.atomicCpu1.pwrStateResidencyTicks::OFF 16909915053439                       # Cumulative time (in ticks) in various power states
system.bridge.pwrStateResidencyTicks::UNDEFINED 16909915053439                       # Cumulative time (in ticks) in various power states
system.clk_domain.clock                           333                       # Clock period in ticks
system.clk_domain.voltage_domain.voltage            1                       # Voltage in Volts
system.cpu0.apic_clk_domain.clock                5328                       # Clock period in ticks
system.cpu0.committedInsts                 2245299512                       # Number of instructions committed
system.cpu0.dcache.HardPFReq_avg_mshr_miss_latency::.cpu0.dcache.prefetcher 29672.736053                       # average HardPFReq mshr miss latency
system.cpu0.dcache.HardPFReq_avg_mshr_miss_latency::total 29672.736053                       # average HardPFReq mshr miss latency
system.cpu0.dcache.HardPFReq_mshr_miss_latency::.cpu0.dcache.prefetcher    643037863                       # number of HardPFReq MSHR miss cycles
system.cpu0.dcache.HardPFReq_mshr_miss_latency::total    643037863                       # number of HardPFReq MSHR miss cycles
system.cpu0.dcache.HardPFReq_mshr_miss_rate::.cpu0.dcache.prefetcher          inf                       # mshr miss rate for HardPFReq accesses
system.cpu0.dcache.HardPFReq_mshr_miss_rate::total          inf                       # mshr miss rate for HardPFReq accesses
system.cpu0.dcache.HardPFReq_mshr_misses::.cpu0.dcache.prefetcher        21671                       # number of HardPFReq MSHR misses
system.cpu0.dcache.HardPFReq_mshr_misses::total        21671                       # number of HardPFReq MSHR misses
system.cpu0.dcache.ReadReq_accesses::.timingCpu0.data      3722583                       # number of ReadReq accesses(hits+misses)
system.cpu0.dcache.ReadReq_accesses::total      3722583                       # number of ReadReq accesses(hits+misses)
system.cpu0.dcache.ReadReq_avg_miss_latency::.timingCpu0.data 25436.899123                       # average ReadReq miss latency
system.cpu0.dcache.ReadReq_avg_miss_latency::total 25436.899123                       # average ReadReq miss latency
system.cpu0.dcache.ReadReq_avg_mshr_miss_latency::.timingCpu0.data 25575.970220                       # average ReadReq mshr miss latency
system.cpu0.dcache.ReadReq_avg_mshr_miss_latency::total 25575.970220                       # average ReadReq mshr miss latency
system.cpu0.dcache.ReadReq_avg_mshr_uncacheable_latency::.timingCpu0.data 167317.264706                       # average ReadReq mshr uncacheable latency
system.cpu0.dcache.ReadReq_avg_mshr_uncacheable_latency::total 167317.264706                       # average ReadReq mshr uncacheable latency
system.cpu0.dcache.ReadReq_hits::.timingCpu0.data      3599522                       # number of ReadReq hits
system.cpu0.dcache.ReadReq_hits::total        3599522                       # number of ReadReq hits
system.cpu0.dcache.ReadReq_miss_latency::.timingCpu0.data   3130290243                       # number of ReadReq miss cycles
system.cpu0.dcache.ReadReq_miss_latency::total   3130290243                       # number of ReadReq miss cycles
system.cpu0.dcache.ReadReq_miss_rate::.timingCpu0.data     0.033058                       # miss rate for ReadReq accesses
system.cpu0.dcache.ReadReq_miss_rate::total     0.033058                       # miss rate for ReadReq accesses
system.cpu0.dcache.ReadReq_misses::.timingCpu0.data       123061                       # number of ReadReq misses
system.cpu0.dcache.ReadReq_misses::total       123061                       # number of ReadReq misses
system.cpu0.dcache.ReadReq_mshr_hits::.timingCpu0.data        63087                       # number of ReadReq MSHR hits
system.cpu0.dcache.ReadReq_mshr_hits::total        63087                       # number of ReadReq MSHR hits
system.cpu0.dcache.ReadReq_mshr_miss_latency::.timingCpu0.data   1533893238                       # number of ReadReq MSHR miss cycles
system.cpu0.dcache.ReadReq_mshr_miss_latency::total   1533893238                       # number of ReadReq MSHR miss cycles
system.cpu0.dcache.ReadReq_mshr_miss_rate::.timingCpu0.data     0.016111                       # mshr miss rate for ReadReq accesses
system.cpu0.dcache.ReadReq_mshr_miss_rate::total     0.016111                       # mshr miss rate for ReadReq accesses
system.cpu0.dcache.ReadReq_mshr_misses::.timingCpu0.data        59974                       # number of ReadReq MSHR misses
system.cpu0.dcache.ReadReq_mshr_misses::total        59974                       # number of ReadReq MSHR misses
system.cpu0.dcache.ReadReq_mshr_uncacheable::.timingCpu0.data          306                       # number of ReadReq MSHR uncacheable
system.cpu0.dcache.ReadReq_mshr_uncacheable::total          306                       # number of ReadReq MSHR uncacheable
system.cpu0.dcache.ReadReq_mshr_uncacheable_latency::.timingCpu0.data     51199083                       # number of ReadReq MSHR uncacheable cycles
system.cpu0.dcache.ReadReq_mshr_uncacheable_latency::total     51199083                       # number of ReadReq MSHR uncacheable cycles
system.cpu0.dcache.SoftPFReq_accesses::.timingCpu0.data         4999                       # number of SoftPFReq accesses(hits+misses)
system.cpu0.dcache.SoftPFReq_accesses::total         4999                       # number of SoftPFReq accesses(hits+misses)
system.cpu0.dcache.SoftPFReq_avg_mshr_miss_latency::.timingCpu0.data 34406.617293                       # average SoftPFReq mshr miss latency
system.cpu0.dcache.SoftPFReq_avg_mshr_miss_latency::total 34406.617293                       # average SoftPFReq mshr miss latency
system.cpu0.dcache.SoftPFReq_hits::.timingCpu0.data          647                       # number of SoftPFReq hits
system.cpu0.dcache.SoftPFReq_hits::total          647                       # number of SoftPFReq hits
system.cpu0.dcache.SoftPFReq_miss_rate::.timingCpu0.data     0.870574                       # miss rate for SoftPFReq accesses
system.cpu0.dcache.SoftPFReq_miss_rate::total     0.870574                       # miss rate for SoftPFReq accesses
system.cpu0.dcache.SoftPFReq_misses::.timingCpu0.data         4352                       # number of SoftPFReq misses
system.cpu0.dcache.SoftPFReq_misses::total         4352                       # number of SoftPFReq misses
system.cpu0.dcache.SoftPFReq_mshr_miss_latency::.timingCpu0.data    145643211                       # number of SoftPFReq MSHR miss cycles
system.cpu0.dcache.SoftPFReq_mshr_miss_latency::total    145643211                       # number of SoftPFReq MSHR miss cycles
system.cpu0.dcache.SoftPFReq_mshr_miss_rate::.timingCpu0.data     0.846769                       # mshr miss rate for SoftPFReq accesses
system.cpu0.dcache.SoftPFReq_mshr_miss_rate::total     0.846769                       # mshr miss rate for SoftPFReq accesses
system.cpu0.dcache.SoftPFReq_mshr_misses::.timingCpu0.data         4233                       # number of SoftPFReq MSHR misses
system.cpu0.dcache.SoftPFReq_mshr_misses::total         4233                       # number of SoftPFReq MSHR misses
system.cpu0.dcache.WriteReq_accesses::.timingCpu0.data      2126710                       # number of WriteReq accesses(hits+misses)
system.cpu0.dcache.WriteReq_accesses::total      2126710                       # number of WriteReq accesses(hits+misses)
system.cpu0.dcache.WriteReq_avg_miss_latency::.timingCpu0.data 23648.948401                       # average WriteReq miss latency
system.cpu0.dcache.WriteReq_avg_miss_latency::total 23648.948401                       # average WriteReq miss latency
system.cpu0.dcache.WriteReq_avg_mshr_miss_latency::.timingCpu0.data 23311.353889                       # average WriteReq mshr miss latency
system.cpu0.dcache.WriteReq_avg_mshr_miss_latency::total 23311.353889                       # average WriteReq mshr miss latency
system.cpu0.dcache.WriteReq_hits::.timingCpu0.data      2084500                       # number of WriteReq hits
system.cpu0.dcache.WriteReq_hits::total       2084500                       # number of WriteReq hits
system.cpu0.dcache.WriteReq_miss_latency::.timingCpu0.data    998222112                       # number of WriteReq miss cycles
system.cpu0.dcache.WriteReq_miss_latency::total    998222112                       # number of WriteReq miss cycles
system.cpu0.dcache.WriteReq_miss_rate::.timingCpu0.data     0.019848                       # miss rate for WriteReq accesses
system.cpu0.dcache.WriteReq_miss_rate::total     0.019848                       # miss rate for WriteReq accesses
system.cpu0.dcache.WriteReq_misses::.timingCpu0.data        42210                       # number of WriteReq misses
system.cpu0.dcache.WriteReq_misses::total        42210                       # number of WriteReq misses
system.cpu0.dcache.WriteReq_mshr_hits::.timingCpu0.data         1135                       # number of WriteReq MSHR hits
system.cpu0.dcache.WriteReq_mshr_hits::total         1135                       # number of WriteReq MSHR hits
system.cpu0.dcache.WriteReq_mshr_miss_latency::.timingCpu0.data    957513861                       # number of WriteReq MSHR miss cycles
system.cpu0.dcache.WriteReq_mshr_miss_latency::total    957513861                       # number of WriteReq MSHR miss cycles
system.cpu0.dcache.WriteReq_mshr_miss_rate::.timingCpu0.data     0.019314                       # mshr miss rate for WriteReq accesses
system.cpu0.dcache.WriteReq_mshr_miss_rate::total     0.019314                       # mshr miss rate for WriteReq accesses
system.cpu0.dcache.WriteReq_mshr_misses::.timingCpu0.data        41075                       # number of WriteReq MSHR misses
system.cpu0.dcache.WriteReq_mshr_misses::total        41075                       # number of WriteReq MSHR misses
system.cpu0.dcache.WriteReq_mshr_uncacheable::.timingCpu0.data         2625                       # number of WriteReq MSHR uncacheable
system.cpu0.dcache.WriteReq_mshr_uncacheable::total         2625                       # number of WriteReq MSHR uncacheable
system.cpu0.dcache.avg_blocked_cycles::no_mshrs           10                       # average number of cycles each access was blocked
system.cpu0.dcache.avg_blocked_cycles::no_targets    97.031250                       # average number of cycles each access was blocked
system.cpu0.dcache.blocked::no_mshrs                1                       # number of cycles access was blocked
system.cpu0.dcache.blocked::no_targets             64                       # number of cycles access was blocked
system.cpu0.dcache.blocked_cycles::no_mshrs           10                       # number of cycles access was blocked
system.cpu0.dcache.blocked_cycles::no_targets         6210                       # number of cycles access was blocked
system.cpu0.dcache.demand_accesses::.timingCpu0.data      5849293                       # number of demand (read+write) accesses
system.cpu0.dcache.demand_accesses::total      5849293                       # number of demand (read+write) accesses
system.cpu0.dcache.demand_avg_miss_latency::.timingCpu0.data 24980.258817                       # average overall miss latency
system.cpu0.dcache.demand_avg_miss_latency::total 24980.258817                       # average overall miss latency
system.cpu0.dcache.demand_avg_mshr_miss_latency::.timingCpu0.data 24655.435472                       # average overall mshr miss latency
system.cpu0.dcache.demand_avg_mshr_miss_latency::total 24655.435472                       # average overall mshr miss latency
system.cpu0.dcache.demand_hits::.timingCpu0.data      5684022                       # number of demand (read+write) hits
system.cpu0.dcache.demand_hits::total         5684022                       # number of demand (read+write) hits
system.cpu0.dcache.demand_miss_latency::.timingCpu0.data   4128512355                       # number of demand (read+write) miss cycles
system.cpu0.dcache.demand_miss_latency::total   4128512355                       # number of demand (read+write) miss cycles
system.cpu0.dcache.demand_miss_rate::.timingCpu0.data     0.028255                       # miss rate for demand accesses
system.cpu0.dcache.demand_miss_rate::total     0.028255                       # miss rate for demand accesses
system.cpu0.dcache.demand_misses::.timingCpu0.data       165271                       # number of demand (read+write) misses
system.cpu0.dcache.demand_misses::total        165271                       # number of demand (read+write) misses
system.cpu0.dcache.demand_mshr_hits::.timingCpu0.data        64222                       # number of demand (read+write) MSHR hits
system.cpu0.dcache.demand_mshr_hits::total        64222                       # number of demand (read+write) MSHR hits
system.cpu0.dcache.demand_mshr_miss_latency::.timingCpu0.data   2491407099                       # number of demand (read+write) MSHR miss cycles
system.cpu0.dcache.demand_mshr_miss_latency::total   2491407099                       # number of demand (read+write) MSHR miss cycles
system.cpu0.dcache.demand_mshr_miss_rate::.timingCpu0.data     0.017275                       # mshr miss rate for demand accesses
system.cpu0.dcache.demand_mshr_miss_rate::total     0.017275                       # mshr miss rate for demand accesses
system.cpu0.dcache.demand_mshr_misses::.timingCpu0.data       101049                       # number of demand (read+write) MSHR misses
system.cpu0.dcache.demand_mshr_misses::total       101049                       # number of demand (read+write) MSHR misses
system.cpu0.dcache.overall_accesses::.timingCpu0.data      5854292                       # number of overall (read+write) accesses
system.cpu0.dcache.overall_accesses::total      5854292                       # number of overall (read+write) accesses
system.cpu0.dcache.overall_avg_miss_latency::.timingCpu0.data 24339.342866                       # average overall miss latency
system.cpu0.dcache.overall_avg_miss_latency::total 24339.342866                       # average overall miss latency
system.cpu0.dcache.overall_avg_mshr_miss_latency::.cpu0.dcache.prefetcher 29672.736053                       # average overall mshr miss latency
system.cpu0.dcache.overall_avg_mshr_miss_latency::.timingCpu0.data 25047.494443                       # average overall mshr miss latency
system.cpu0.dcache.overall_avg_mshr_miss_latency::total 25837.027664                       # average overall mshr miss latency
system.cpu0.dcache.overall_avg_mshr_uncacheable_latency::.timingCpu0.data 17468.127943                       # average overall mshr uncacheable latency
system.cpu0.dcache.overall_avg_mshr_uncacheable_latency::total 17468.127943                       # average overall mshr uncacheable latency
system.cpu0.dcache.overall_hits::.timingCpu0.data      5684669                       # number of overall hits
system.cpu0.dcache.overall_hits::total        5684669                       # number of overall hits
system.cpu0.dcache.overall_miss_latency::.timingCpu0.data   4128512355                       # number of overall miss cycles
system.cpu0.dcache.overall_miss_latency::total   4128512355                       # number of overall miss cycles
system.cpu0.dcache.overall_miss_rate::.timingCpu0.data     0.028974                       # miss rate for overall accesses
system.cpu0.dcache.overall_miss_rate::total     0.028974                       # miss rate for overall accesses
system.cpu0.dcache.overall_misses::.timingCpu0.data       169623                       # number of overall misses
system.cpu0.dcache.overall_misses::total       169623                       # number of overall misses
system.cpu0.dcache.overall_mshr_hits::.timingCpu0.data        64222                       # number of overall MSHR hits
system.cpu0.dcache.overall_mshr_hits::total        64222                       # number of overall MSHR hits
system.cpu0.dcache.overall_mshr_miss_latency::.cpu0.dcache.prefetcher    643037863                       # number of overall MSHR miss cycles
system.cpu0.dcache.overall_mshr_miss_latency::.timingCpu0.data   2637050310                       # number of overall MSHR miss cycles
system.cpu0.dcache.overall_mshr_miss_latency::total   3280088173                       # number of overall MSHR miss cycles
system.cpu0.dcache.overall_mshr_miss_rate::.cpu0.dcache.prefetcher          inf                       # mshr miss rate for overall accesses
system.cpu0.dcache.overall_mshr_miss_rate::.timingCpu0.data     0.017984                       # mshr miss rate for overall accesses
system.cpu0.dcache.overall_mshr_miss_rate::total     0.021685                       # mshr miss rate for overall accesses
system.cpu0.dcache.overall_mshr_misses::.cpu0.dcache.prefetcher        21671                       # number of overall MSHR misses
system.cpu0.dcache.overall_mshr_misses::.timingCpu0.data       105282                       # number of overall MSHR misses
system.cpu0.dcache.overall_mshr_misses::total       126953                       # number of overall MSHR misses
system.cpu0.dcache.overall_mshr_uncacheable_latency::.timingCpu0.data     51199083                       # number of overall MSHR uncacheable cycles
system.cpu0.dcache.overall_mshr_uncacheable_latency::total     51199083                       # number of overall MSHR uncacheable cycles
system.cpu0.dcache.overall_mshr_uncacheable_misses::.timingCpu0.data         2931                       # number of overall MSHR uncacheable misses
system.cpu0.dcache.overall_mshr_uncacheable_misses::total         2931                       # number of overall MSHR uncacheable misses
system.cpu0.dcache.prefetcher.num_hwpf_issued        76676                       # number of hwpf issued
system.cpu0.dcache.prefetcher.pfBufferHit        16673                       # number of redundant prefetches already in prefetch queue
system.cpu0.dcache.prefetcher.pfIdentified        99492                       # number of prefetch candidates identified
system.cpu0.dcache.prefetcher.pfInCache             0                       # number of redundant prefetches already in cache/mshr dropped
system.cpu0.dcache.prefetcher.pfRemovedFull            0                       # number of prefetches dropped due to prefetch queue size
system.cpu0.dcache.prefetcher.pfSpanPage         7272                       # number of prefetches that crossed the page
system.cpu0.dcache.prefetcher.pwrStateResidencyTicks::UNDEFINED 16909915053439                       # Cumulative time (in ticks) in various power states
system.cpu0.dcache.pwrStateResidencyTicks::UNDEFINED 16909915053439                       # Cumulative time (in ticks) in various power states
system.cpu0.dcache.replacements                 92880                       # number of replacements
system.cpu0.dcache.tags.age_task_id_blocks_1022::1           16                       # Occupied blocks per task id
system.cpu0.dcache.tags.age_task_id_blocks_1022::2            1                       # Occupied blocks per task id
system.cpu0.dcache.tags.age_task_id_blocks_1024::1          420                       # Occupied blocks per task id
system.cpu0.dcache.tags.age_task_id_blocks_1024::2           69                       # Occupied blocks per task id
system.cpu0.dcache.tags.avg_refs            58.745077                       # Average number of references to valid blocks.
system.cpu0.dcache.tags.data_accesses        46933307                       # Number of data accesses
system.cpu0.dcache.tags.occ_blocks::.cpu0.dcache.prefetcher     1.731936                       # Average occupied blocks per requestor
system.cpu0.dcache.tags.occ_blocks::.timingCpu0.data    58.235037                       # Average occupied blocks per requestor
system.cpu0.dcache.tags.occ_percent::.cpu0.dcache.prefetcher     0.003383                       # Average percentage of cache occupancy
system.cpu0.dcache.tags.occ_percent::.timingCpu0.data     0.113740                       # Average percentage of cache occupancy
system.cpu0.dcache.tags.occ_percent::total     0.117123                       # Average percentage of cache occupancy
system.cpu0.dcache.tags.occ_task_id_blocks::1022           17                       # Occupied blocks per task id
system.cpu0.dcache.tags.occ_task_id_blocks::1024          489                       # Occupied blocks per task id
system.cpu0.dcache.tags.occ_task_id_percent::1022     0.033203                       # Percentage of cache occupancy per task id
system.cpu0.dcache.tags.occ_task_id_percent::1024     0.955078                       # Percentage of cache occupancy per task id
system.cpu0.dcache.tags.pwrStateResidencyTicks::UNDEFINED 16909915053439                       # Cumulative time (in ticks) in various power states
system.cpu0.dcache.tags.sampled_refs            98971                       # Sample count of references to valid blocks.
system.cpu0.dcache.tags.tag_accesses         46933307                       # Number of tag accesses
system.cpu0.dcache.tags.tagsinuse           59.966972                       # Cycle average of tags in use
system.cpu0.dcache.tags.total_refs            5814059                       # Total number of references to valid blocks.
system.cpu0.dcache.tags.warmup_cycle     14896324194237                       # Cycle when the warmup percentage was hit.
system.cpu0.dcache.unused_prefetches             3273                       # number of HardPF blocks evicted w/o reference
system.cpu0.dcache.writebacks::.writebacks        92880                       # number of writebacks
system.cpu0.dcache.writebacks::total            92880                       # number of writebacks
system.cpu0.dtb.rdAccesses                          0                       # TLB accesses on read requests
system.cpu0.dtb.rdMisses                            0                       # TLB misses on read requests
system.cpu0.dtb.walker.pwrStateResidencyTicks::UNDEFINED 16909915053439                       # Cumulative time (in ticks) in various power states
system.cpu0.dtb.wrAccesses                          0                       # TLB accesses on write requests
system.cpu0.dtb.wrMisses                            0                       # TLB misses on write requests
system.cpu0.icache.ReadReq_accesses::.timingCpu0.inst      2975869                       # number of ReadReq accesses(hits+misses)
system.cpu0.icache.ReadReq_accesses::total      2975869                       # number of ReadReq accesses(hits+misses)
system.cpu0.icache.ReadReq_avg_miss_latency::.timingCpu0.inst 23210.411419                       # average ReadReq miss latency
system.cpu0.icache.ReadReq_avg_miss_latency::total 23210.411419                       # average ReadReq miss latency
system.cpu0.icache.ReadReq_avg_mshr_miss_latency::.timingCpu0.inst 21854.822035                       # average ReadReq mshr miss latency
system.cpu0.icache.ReadReq_avg_mshr_miss_latency::total 21854.822035                       # average ReadReq mshr miss latency
system.cpu0.icache.ReadReq_hits::.timingCpu0.inst      2823387                       # number of ReadReq hits
system.cpu0.icache.ReadReq_hits::total        2823387                       # number of ReadReq hits
system.cpu0.icache.ReadReq_miss_latency::.timingCpu0.inst   3539169954                       # number of ReadReq miss cycles
system.cpu0.icache.ReadReq_miss_latency::total   3539169954                       # number of ReadReq miss cycles
system.cpu0.icache.ReadReq_miss_rate::.timingCpu0.inst     0.051239                       # miss rate for ReadReq accesses
system.cpu0.icache.ReadReq_miss_rate::total     0.051239                       # miss rate for ReadReq accesses
system.cpu0.icache.ReadReq_misses::.timingCpu0.inst       152482                       # number of ReadReq misses
system.cpu0.icache.ReadReq_misses::total       152482                       # number of ReadReq misses
system.cpu0.icache.ReadReq_mshr_hits::.timingCpu0.inst        33251                       # number of ReadReq MSHR hits
system.cpu0.icache.ReadReq_mshr_hits::total        33251                       # number of ReadReq MSHR hits
system.cpu0.icache.ReadReq_mshr_miss_latency::.timingCpu0.inst   2605772286                       # number of ReadReq MSHR miss cycles
system.cpu0.icache.ReadReq_mshr_miss_latency::total   2605772286                       # number of ReadReq MSHR miss cycles
system.cpu0.icache.ReadReq_mshr_miss_rate::.timingCpu0.inst     0.040066                       # mshr miss rate for ReadReq accesses
system.cpu0.icache.ReadReq_mshr_miss_rate::total     0.040066                       # mshr miss rate for ReadReq accesses
system.cpu0.icache.ReadReq_mshr_misses::.timingCpu0.inst       119231                       # number of ReadReq MSHR misses
system.cpu0.icache.ReadReq_mshr_misses::total       119231                       # number of ReadReq MSHR misses
system.cpu0.icache.avg_blocked_cycles::no_mshrs          nan                       # average number of cycles each access was blocked
system.cpu0.icache.avg_blocked_cycles::no_targets          nan                       # average number of cycles each access was blocked
system.cpu0.icache.blocked::no_mshrs                0                       # number of cycles access was blocked
system.cpu0.icache.blocked::no_targets              0                       # number of cycles access was blocked
system.cpu0.icache.blocked_cycles::no_mshrs            0                       # number of cycles access was blocked
system.cpu0.icache.blocked_cycles::no_targets            0                       # number of cycles access was blocked
system.cpu0.icache.demand_accesses::.timingCpu0.inst      2975869                       # number of demand (read+write) accesses
system.cpu0.icache.demand_accesses::total      2975869                       # number of demand (read+write) accesses
system.cpu0.icache.demand_avg_miss_latency::.timingCpu0.inst 23210.411419                       # average overall miss latency
system.cpu0.icache.demand_avg_miss_latency::total 23210.411419                       # average overall miss latency
system.cpu0.icache.demand_avg_mshr_miss_latency::.timingCpu0.inst 21854.822035                       # average overall mshr miss latency
system.cpu0.icache.demand_avg_mshr_miss_latency::total 21854.822035                       # average overall mshr miss latency
system.cpu0.icache.demand_hits::.timingCpu0.inst      2823387                       # number of demand (read+write) hits
system.cpu0.icache.demand_hits::total         2823387                       # number of demand (read+write) hits
system.cpu0.icache.demand_miss_latency::.timingCpu0.inst   3539169954                       # number of demand (read+write) miss cycles
system.cpu0.icache.demand_miss_latency::total   3539169954                       # number of demand (read+write) miss cycles
system.cpu0.icache.demand_miss_rate::.timingCpu0.inst     0.051239                       # miss rate for demand accesses
system.cpu0.icache.demand_miss_rate::total     0.051239                       # miss rate for demand accesses
system.cpu0.icache.demand_misses::.timingCpu0.inst       152482                       # number of demand (read+write) misses
system.cpu0.icache.demand_misses::total        152482                       # number of demand (read+write) misses
system.cpu0.icache.demand_mshr_hits::.timingCpu0.inst        33251                       # number of demand (read+write) MSHR hits
system.cpu0.icache.demand_mshr_hits::total        33251                       # number of demand (read+write) MSHR hits
system.cpu0.icache.demand_mshr_miss_latency::.timingCpu0.inst   2605772286                       # number of demand (read+write) MSHR miss cycles
system.cpu0.icache.demand_mshr_miss_latency::total   2605772286                       # number of demand (read+write) MSHR miss cycles
system.cpu0.icache.demand_mshr_miss_rate::.timingCpu0.inst     0.040066                       # mshr miss rate for demand accesses
system.cpu0.icache.demand_mshr_miss_rate::total     0.040066                       # mshr miss rate for demand accesses
system.cpu0.icache.demand_mshr_misses::.timingCpu0.inst       119231                       # number of demand (read+write) MSHR misses
system.cpu0.icache.demand_mshr_misses::total       119231                       # number of demand (read+write) MSHR misses
system.cpu0.icache.overall_accesses::.timingCpu0.inst      2975869                       # number of overall (read+write) accesses
system.cpu0.icache.overall_accesses::total      2975869                       # number of overall (read+write) accesses
system.cpu0.icache.overall_avg_miss_latency::.timingCpu0.inst 23210.411419                       # average overall miss latency
system.cpu0.icache.overall_avg_miss_latency::total 23210.411419                       # average overall miss latency
system.cpu0.icache.overall_avg_mshr_miss_latency::.timingCpu0.inst 21854.822035                       # average overall mshr miss latency
system.cpu0.icache.overall_avg_mshr_miss_latency::total 21854.822035                       # average overall mshr miss latency
system.cpu0.icache.overall_hits::.timingCpu0.inst      2823387                       # number of overall hits
system.cpu0.icache.overall_hits::total        2823387                       # number of overall hits
system.cpu0.icache.overall_miss_latency::.timingCpu0.inst   3539169954                       # number of overall miss cycles
system.cpu0.icache.overall_miss_latency::total   3539169954                       # number of overall miss cycles
system.cpu0.icache.overall_miss_rate::.timingCpu0.inst     0.051239                       # miss rate for overall accesses
system.cpu0.icache.overall_miss_rate::total     0.051239                       # miss rate for overall accesses
system.cpu0.icache.overall_misses::.timingCpu0.inst       152482                       # number of overall misses
system.cpu0.icache.overall_misses::total       152482                       # number of overall misses
system.cpu0.icache.overall_mshr_hits::.timingCpu0.inst        33251                       # number of overall MSHR hits
system.cpu0.icache.overall_mshr_hits::total        33251                       # number of overall MSHR hits
system.cpu0.icache.overall_mshr_miss_latency::.timingCpu0.inst   2605772286                       # number of overall MSHR miss cycles
system.cpu0.icache.overall_mshr_miss_latency::total   2605772286                       # number of overall MSHR miss cycles
system.cpu0.icache.overall_mshr_miss_rate::.timingCpu0.inst     0.040066                       # mshr miss rate for overall accesses
system.cpu0.icache.overall_mshr_miss_rate::total     0.040066                       # mshr miss rate for overall accesses
system.cpu0.icache.overall_mshr_misses::.timingCpu0.inst       119231                       # number of overall MSHR misses
system.cpu0.icache.overall_mshr_misses::total       119231                       # number of overall MSHR misses
system.cpu0.icache.prefetcher.num_hwpf_issued            0                       # number of hwpf issued
system.cpu0.icache.prefetcher.pfBufferHit            0                       # number of redundant prefetches already in prefetch queue
system.cpu0.icache.prefetcher.pfIdentified            0                       # number of prefetch candidates identified
system.cpu0.icache.prefetcher.pfInCache             0                       # number of redundant prefetches already in cache/mshr dropped
system.cpu0.icache.prefetcher.pfRemovedFull            0                       # number of prefetches dropped due to prefetch queue size
system.cpu0.icache.prefetcher.pfSpanPage            0                       # number of prefetches that crossed the page
system.cpu0.icache.prefetcher.pwrStateResidencyTicks::UNDEFINED 16909915053439                       # Cumulative time (in ticks) in various power states
system.cpu0.icache.pwrStateResidencyTicks::UNDEFINED 16909915053439                       # Cumulative time (in ticks) in various power states
system.cpu0.icache.replacements                118719                       # number of replacements
system.cpu0.icache.tags.age_task_id_blocks_1024::1          508                       # Occupied blocks per task id
system.cpu0.icache.tags.age_task_id_blocks_1024::2            4                       # Occupied blocks per task id
system.cpu0.icache.tags.avg_refs            24.679974                       # Average number of references to valid blocks.
system.cpu0.icache.tags.data_accesses        23926183                       # Number of data accesses
system.cpu0.icache.tags.occ_blocks::.timingCpu0.inst    60.967100                       # Average occupied blocks per requestor
system.cpu0.icache.tags.occ_percent::.timingCpu0.inst     0.119076                       # Average percentage of cache occupancy
system.cpu0.icache.tags.occ_percent::total     0.119076                       # Average percentage of cache occupancy
system.cpu0.icache.tags.occ_task_id_blocks::1024          512                       # Occupied blocks per task id
system.cpu0.icache.tags.occ_task_id_percent::1024            1                       # Percentage of cache occupancy per task id
system.cpu0.icache.tags.pwrStateResidencyTicks::UNDEFINED 16909915053439                       # Cumulative time (in ticks) in various power states
system.cpu0.icache.tags.sampled_refs           119231                       # Sample count of references to valid blocks.
system.cpu0.icache.tags.tag_accesses         23926183                       # Number of tag accesses
system.cpu0.icache.tags.tagsinuse           60.967100                       # Cycle average of tags in use
system.cpu0.icache.tags.total_refs            2942618                       # Total number of references to valid blocks.
system.cpu0.icache.tags.warmup_cycle     14896324977453                       # Cycle when the warmup percentage was hit.
system.cpu0.icache.writebacks::.writebacks       118719                       # number of writebacks
system.cpu0.icache.writebacks::total           118719                       # number of writebacks
system.cpu0.interrupts.pwrStateResidencyTicks::UNDEFINED 16909915053439                       # Cumulative time (in ticks) in various power states
system.cpu0.itb.rdAccesses                          0                       # TLB accesses on read requests
system.cpu0.itb.rdMisses                            0                       # TLB misses on read requests
system.cpu0.itb.walker.pwrStateResidencyTicks::UNDEFINED 16909915053439                       # Cumulative time (in ticks) in various power states
system.cpu0.itb.wrAccesses                          0                       # TLB accesses on write requests
system.cpu0.itb.wrMisses                            0                       # TLB misses on write requests
system.cpu0.kern.inst.arm                           0                       # number of arm instructions executed
system.cpu0.kern.inst.quiesce                       0                       # number of quiesce instructions executed
system.cpu0.l2bus.pkt_count_system.cpu0.icache.mem_side::system.cpu0.l2cache.cpu_side       357186                       # Packet count per connected master and slave (bytes)
system.cpu0.l2bus.pkt_count_system.cpu0.dcache.mem_side::system.cpu0.l2cache.cpu_side       600504                       # Packet count per connected master and slave (bytes)
system.cpu0.l2bus.pkt_count_system.cpu0.mmucache.mem_side::system.cpu0.l2cache.cpu_side         6380                       # Packet count per connected master and slave (bytes)
system.cpu0.l2bus.pkt_count::total             964070                       # Packet count per connected master and slave (bytes)
system.cpu0.l2bus.pkt_size_system.cpu0.icache.mem_side::system.cpu0.l2cache.cpu_side     15229120                       # Cumulative packet size per connected master and slave (bytes)
system.cpu0.l2bus.pkt_size_system.cpu0.dcache.mem_side::system.cpu0.l2cache.cpu_side     13605855                       # Cumulative packet size per connected master and slave (bytes)
system.cpu0.l2bus.pkt_size_system.cpu0.mmucache.mem_side::system.cpu0.l2cache.cpu_side       251264                       # Cumulative packet size per connected master and slave (bytes)
system.cpu0.l2bus.pkt_size::total            29086239                       # Cumulative packet size per connected master and slave (bytes)
system.cpu0.l2bus.pwrStateResidencyTicks::UNDEFINED 16909915053439                       # Cumulative time (in ticks) in various power states
system.cpu0.l2bus.reqLayer0.occupancy       298383846                       # Layer occupancy (ticks)
system.cpu0.l2bus.reqLayer0.utilization           0.0                       # Layer utilization (%)
system.cpu0.l2bus.respLayer0.occupancy      119179165                       # Layer occupancy (ticks)
system.cpu0.l2bus.respLayer0.utilization          0.0                       # Layer utilization (%)
system.cpu0.l2bus.respLayer1.occupancy      109492563                       # Layer occupancy (ticks)
system.cpu0.l2bus.respLayer1.utilization          0.0                       # Layer utilization (%)
system.cpu0.l2bus.respLayer2.occupancy        2453870                       # Layer occupancy (ticks)
system.cpu0.l2bus.respLayer2.utilization          0.0                       # Layer utilization (%)
system.cpu0.l2bus.snoopLayer0.occupancy      17165991                       # Layer occupancy (ticks)
system.cpu0.l2bus.snoopLayer0.utilization          0.0                       # Layer utilization (%)
system.cpu0.l2bus.snoopTraffic                8035776                       # Total snoop traffic (bytes)
system.cpu0.l2bus.snoop_fanout::samples        396995                       # Request fanout histogram
system.cpu0.l2bus.snoop_fanout::mean         0.081976                       # Request fanout histogram
system.cpu0.l2bus.snoop_fanout::stdev        0.274723                       # Request fanout histogram
system.cpu0.l2bus.snoop_fanout::underflows            0      0.00%      0.00% # Request fanout histogram
system.cpu0.l2bus.snoop_fanout::0              364494     91.81%     91.81% # Request fanout histogram
system.cpu0.l2bus.snoop_fanout::1               32458      8.18%     99.99% # Request fanout histogram
system.cpu0.l2bus.snoop_fanout::2                  43      0.01%    100.00% # Request fanout histogram
system.cpu0.l2bus.snoop_fanout::3                   0      0.00%    100.00% # Request fanout histogram
system.cpu0.l2bus.snoop_fanout::overflows            0      0.00%    100.00% # Request fanout histogram
system.cpu0.l2bus.snoop_fanout::min_value            0                       # Request fanout histogram
system.cpu0.l2bus.snoop_fanout::max_value            2                       # Request fanout histogram
system.cpu0.l2bus.snoop_fanout::total          396995                       # Request fanout histogram
system.cpu0.l2bus.snoop_filter.hit_multi_requests         2085                       # Number of requests hitting in the snoop filter with multiple (>1) holders of the requested data.
system.cpu0.l2bus.snoop_filter.hit_multi_snoops           43                       # Number of snoops hitting in the snoop filter with multiple (>1) holders of the requested data.
system.cpu0.l2bus.snoop_filter.hit_single_requests       241426                       # Number of requests hitting in the snoop filter with a single holder of the requested data.
system.cpu0.l2bus.snoop_filter.hit_single_snoops        30283                       # Number of snoops hitting in the snoop filter with a single holder of the requested data.
system.cpu0.l2bus.snoop_filter.tot_requests       462580                       # Total number of requests made to the snoop filter.
system.cpu0.l2bus.snoop_filter.tot_snoops        30326                       # Total number of snoops made to the snoop filter.
system.cpu0.l2bus.snoops                       163774                       # Total snoops (count)
system.cpu0.l2bus.trans_dist::ReadReq           59598                       # Transaction distribution
system.cpu0.l2bus.trans_dist::ReadResp         283144                       # Transaction distribution
system.cpu0.l2bus.trans_dist::WriteReq          57756                       # Transaction distribution
system.cpu0.l2bus.trans_dist::WriteResp         57756                       # Transaction distribution
system.cpu0.l2bus.trans_dist::WritebackDirty        84605                       # Transaction distribution
system.cpu0.l2bus.trans_dist::WritebackClean       237290                       # Transaction distribution
system.cpu0.l2bus.trans_dist::HardPFReq          3773                       # Transaction distribution
system.cpu0.l2bus.trans_dist::UpgradeReq        34153                       # Transaction distribution
system.cpu0.l2bus.trans_dist::UpgradeResp        30155                       # Transaction distribution
system.cpu0.l2bus.trans_dist::ReadExReq         13845                       # Transaction distribution
system.cpu0.l2bus.trans_dist::ReadExResp        13690                       # Transaction distribution
system.cpu0.l2bus.trans_dist::ReadSharedReq       233833                       # Transaction distribution
system.cpu0.l2cache.HardPFReq_avg_mshr_miss_latency::.cpu0.l2cache.prefetcher 34802.904840                       # average HardPFReq mshr miss latency
system.cpu0.l2cache.HardPFReq_avg_mshr_miss_latency::total 34802.904840                       # average HardPFReq mshr miss latency
system.cpu0.l2cache.HardPFReq_mshr_miss_latency::.cpu0.l2cache.prefetcher    106427283                       # number of HardPFReq MSHR miss cycles
system.cpu0.l2cache.HardPFReq_mshr_miss_latency::total    106427283                       # number of HardPFReq MSHR miss cycles
system.cpu0.l2cache.HardPFReq_mshr_miss_rate::.cpu0.l2cache.prefetcher          inf                       # mshr miss rate for HardPFReq accesses
system.cpu0.l2cache.HardPFReq_mshr_miss_rate::total          inf                       # mshr miss rate for HardPFReq accesses
system.cpu0.l2cache.HardPFReq_mshr_misses::.cpu0.l2cache.prefetcher         3058                       # number of HardPFReq MSHR misses
system.cpu0.l2cache.HardPFReq_mshr_misses::total         3058                       # number of HardPFReq MSHR misses
system.cpu0.l2cache.ReadExReq_accesses::.timingCpu0.data        13095                       # number of ReadExReq accesses(hits+misses)
system.cpu0.l2cache.ReadExReq_accesses::total        13095                       # number of ReadExReq accesses(hits+misses)
system.cpu0.l2cache.ReadExReq_avg_miss_latency::.timingCpu0.data 49984.799634                       # average ReadExReq miss latency
system.cpu0.l2cache.ReadExReq_avg_miss_latency::total 49984.799634                       # average ReadExReq miss latency
system.cpu0.l2cache.ReadExReq_avg_mshr_miss_latency::.timingCpu0.data 49651.799634                       # average ReadExReq mshr miss latency
system.cpu0.l2cache.ReadExReq_avg_mshr_miss_latency::total 49651.799634                       # average ReadExReq mshr miss latency
system.cpu0.l2cache.ReadExReq_hits::.timingCpu0.data         3258                       # number of ReadExReq hits
system.cpu0.l2cache.ReadExReq_hits::total         3258                       # number of ReadExReq hits
system.cpu0.l2cache.ReadExReq_miss_latency::.timingCpu0.data    491700474                       # number of ReadExReq miss cycles
system.cpu0.l2cache.ReadExReq_miss_latency::total    491700474                       # number of ReadExReq miss cycles
system.cpu0.l2cache.ReadExReq_miss_rate::.timingCpu0.data     0.751203                       # miss rate for ReadExReq accesses
system.cpu0.l2cache.ReadExReq_miss_rate::total     0.751203                       # miss rate for ReadExReq accesses
system.cpu0.l2cache.ReadExReq_misses::.timingCpu0.data         9837                       # number of ReadExReq misses
system.cpu0.l2cache.ReadExReq_misses::total         9837                       # number of ReadExReq misses
system.cpu0.l2cache.ReadExReq_mshr_miss_latency::.timingCpu0.data    488424753                       # number of ReadExReq MSHR miss cycles
system.cpu0.l2cache.ReadExReq_mshr_miss_latency::total    488424753                       # number of ReadExReq MSHR miss cycles
system.cpu0.l2cache.ReadExReq_mshr_miss_rate::.timingCpu0.data     0.751203                       # mshr miss rate for ReadExReq accesses
system.cpu0.l2cache.ReadExReq_mshr_miss_rate::total     0.751203                       # mshr miss rate for ReadExReq accesses
system.cpu0.l2cache.ReadExReq_mshr_misses::.timingCpu0.data         9837                       # number of ReadExReq MSHR misses
system.cpu0.l2cache.ReadExReq_mshr_misses::total         9837                       # number of ReadExReq MSHR misses
system.cpu0.l2cache.ReadReq_avg_mshr_uncacheable_latency::.timingCpu0.data 165977.647059                       # average ReadReq mshr uncacheable latency
system.cpu0.l2cache.ReadReq_avg_mshr_uncacheable_latency::total 165977.647059                       # average ReadReq mshr uncacheable latency
system.cpu0.l2cache.ReadReq_mshr_uncacheable::.timingCpu0.data          306                       # number of ReadReq MSHR uncacheable
system.cpu0.l2cache.ReadReq_mshr_uncacheable::total          306                       # number of ReadReq MSHR uncacheable
system.cpu0.l2cache.ReadReq_mshr_uncacheable_latency::.timingCpu0.data     50789160                       # number of ReadReq MSHR uncacheable cycles
system.cpu0.l2cache.ReadReq_mshr_uncacheable_latency::total     50789160                       # number of ReadReq MSHR uncacheable cycles
system.cpu0.l2cache.ReadSharedReq_accesses::.cpu0.dcache.prefetcher        21662                       # number of ReadSharedReq accesses(hits+misses)
system.cpu0.l2cache.ReadSharedReq_accesses::.timingCpu0.dtb.walker         1524                       # number of ReadSharedReq accesses(hits+misses)
system.cpu0.l2cache.ReadSharedReq_accesses::.timingCpu0.itb.walker          557                       # number of ReadSharedReq accesses(hits+misses)
system.cpu0.l2cache.ReadSharedReq_accesses::.timingCpu0.inst       119228                       # number of ReadSharedReq accesses(hits+misses)
system.cpu0.l2cache.ReadSharedReq_accesses::.timingCpu0.data        64071                       # number of ReadSharedReq accesses(hits+misses)
system.cpu0.l2cache.ReadSharedReq_accesses::total       207042                       # number of ReadSharedReq accesses(hits+misses)
system.cpu0.l2cache.ReadSharedReq_avg_miss_latency::.cpu0.dcache.prefetcher 33883.712378                       # average ReadSharedReq miss latency
system.cpu0.l2cache.ReadSharedReq_avg_miss_latency::.timingCpu0.dtb.walker 53641.414671                       # average ReadSharedReq miss latency
system.cpu0.l2cache.ReadSharedReq_avg_miss_latency::.timingCpu0.itb.walker 53398.360743                       # average ReadSharedReq miss latency
system.cpu0.l2cache.ReadSharedReq_avg_miss_latency::.timingCpu0.inst 49099.875123                       # average ReadSharedReq miss latency
system.cpu0.l2cache.ReadSharedReq_avg_miss_latency::.timingCpu0.data 39504.403367                       # average ReadSharedReq miss latency
system.cpu0.l2cache.ReadSharedReq_avg_miss_latency::total 42913.081970                       # average ReadSharedReq miss latency
system.cpu0.l2cache.ReadSharedReq_avg_mshr_miss_latency::.cpu0.dcache.prefetcher 33144.954660                       # average ReadSharedReq mshr miss latency
system.cpu0.l2cache.ReadSharedReq_avg_mshr_miss_latency::.timingCpu0.dtb.walker 53308.414671                       # average ReadSharedReq mshr miss latency
system.cpu0.l2cache.ReadSharedReq_avg_mshr_miss_latency::.timingCpu0.itb.walker 53065.360743                       # average ReadSharedReq mshr miss latency
system.cpu0.l2cache.ReadSharedReq_avg_mshr_miss_latency::.timingCpu0.inst 48766.875123                       # average ReadSharedReq mshr miss latency
system.cpu0.l2cache.ReadSharedReq_avg_mshr_miss_latency::.timingCpu0.data 39171.546880                       # average ReadSharedReq mshr miss latency
system.cpu0.l2cache.ReadSharedReq_avg_mshr_miss_latency::total 42625.973551                       # average ReadSharedReq mshr miss latency
system.cpu0.l2cache.ReadSharedReq_hits::.cpu0.dcache.prefetcher         3767                       # number of ReadSharedReq hits
system.cpu0.l2cache.ReadSharedReq_hits::.timingCpu0.dtb.walker          856                       # number of ReadSharedReq hits
system.cpu0.l2cache.ReadSharedReq_hits::.timingCpu0.itb.walker          180                       # number of ReadSharedReq hits
system.cpu0.l2cache.ReadSharedReq_hits::.timingCpu0.inst        73439                       # number of ReadSharedReq hits
system.cpu0.l2cache.ReadSharedReq_hits::.timingCpu0.data        25104                       # number of ReadSharedReq hits
system.cpu0.l2cache.ReadSharedReq_hits::total       103346                       # number of ReadSharedReq hits
system.cpu0.l2cache.ReadSharedReq_miss_latency::.cpu0.dcache.prefetcher    606349033                       # number of ReadSharedReq miss cycles
system.cpu0.l2cache.ReadSharedReq_miss_latency::.timingCpu0.dtb.walker     35832465                       # number of ReadSharedReq miss cycles
system.cpu0.l2cache.ReadSharedReq_miss_latency::.timingCpu0.itb.walker     20131182                       # number of ReadSharedReq miss cycles
system.cpu0.l2cache.ReadSharedReq_miss_latency::.timingCpu0.inst   2248234182                       # number of ReadSharedReq miss cycles
system.cpu0.l2cache.ReadSharedReq_miss_latency::.timingCpu0.data   1539368086                       # number of ReadSharedReq miss cycles
system.cpu0.l2cache.ReadSharedReq_miss_latency::total   4449914948                       # number of ReadSharedReq miss cycles
system.cpu0.l2cache.ReadSharedReq_miss_rate::.cpu0.dcache.prefetcher     0.826101                       # miss rate for ReadSharedReq accesses
system.cpu0.l2cache.ReadSharedReq_miss_rate::.timingCpu0.dtb.walker     0.438320                       # miss rate for ReadSharedReq accesses
system.cpu0.l2cache.ReadSharedReq_miss_rate::.timingCpu0.itb.walker     0.676840                       # miss rate for ReadSharedReq accesses
system.cpu0.l2cache.ReadSharedReq_miss_rate::.timingCpu0.inst     0.384046                       # miss rate for ReadSharedReq accesses
system.cpu0.l2cache.ReadSharedReq_miss_rate::.timingCpu0.data     0.608185                       # miss rate for ReadSharedReq accesses
system.cpu0.l2cache.ReadSharedReq_miss_rate::total     0.500845                       # miss rate for ReadSharedReq accesses
system.cpu0.l2cache.ReadSharedReq_misses::.cpu0.dcache.prefetcher        17895                       # number of ReadSharedReq misses
system.cpu0.l2cache.ReadSharedReq_misses::.timingCpu0.dtb.walker          668                       # number of ReadSharedReq misses
system.cpu0.l2cache.ReadSharedReq_misses::.timingCpu0.itb.walker          377                       # number of ReadSharedReq misses
system.cpu0.l2cache.ReadSharedReq_misses::.timingCpu0.inst        45789                       # number of ReadSharedReq misses
system.cpu0.l2cache.ReadSharedReq_misses::.timingCpu0.data        38967                       # number of ReadSharedReq misses
system.cpu0.l2cache.ReadSharedReq_misses::total       103696                       # number of ReadSharedReq misses
system.cpu0.l2cache.ReadSharedReq_mshr_hits::.cpu0.dcache.prefetcher         1265                       # number of ReadSharedReq MSHR hits
system.cpu0.l2cache.ReadSharedReq_mshr_hits::.timingCpu0.data            6                       # number of ReadSharedReq MSHR hits
system.cpu0.l2cache.ReadSharedReq_mshr_hits::total         1271                       # number of ReadSharedReq MSHR hits
system.cpu0.l2cache.ReadSharedReq_mshr_miss_latency::.cpu0.dcache.prefetcher    551200596                       # number of ReadSharedReq MSHR miss cycles
system.cpu0.l2cache.ReadSharedReq_mshr_miss_latency::.timingCpu0.dtb.walker     35610021                       # number of ReadSharedReq MSHR miss cycles
system.cpu0.l2cache.ReadSharedReq_mshr_miss_latency::.timingCpu0.itb.walker     20005641                       # number of ReadSharedReq MSHR miss cycles
system.cpu0.l2cache.ReadSharedReq_mshr_miss_latency::.timingCpu0.inst   2232986445                       # number of ReadSharedReq MSHR miss cycles
system.cpu0.l2cache.ReadSharedReq_mshr_miss_latency::.timingCpu0.data   1526162638                       # number of ReadSharedReq MSHR miss cycles
system.cpu0.l2cache.ReadSharedReq_mshr_miss_latency::total   4365965341                       # number of ReadSharedReq MSHR miss cycles
system.cpu0.l2cache.ReadSharedReq_mshr_miss_rate::.cpu0.dcache.prefetcher     0.767704                       # mshr miss rate for ReadSharedReq accesses
system.cpu0.l2cache.ReadSharedReq_mshr_miss_rate::.timingCpu0.dtb.walker     0.438320                       # mshr miss rate for ReadSharedReq accesses
system.cpu0.l2cache.ReadSharedReq_mshr_miss_rate::.timingCpu0.itb.walker     0.676840                       # mshr miss rate for ReadSharedReq accesses
system.cpu0.l2cache.ReadSharedReq_mshr_miss_rate::.timingCpu0.inst     0.384046                       # mshr miss rate for ReadSharedReq accesses
system.cpu0.l2cache.ReadSharedReq_mshr_miss_rate::.timingCpu0.data     0.608091                       # mshr miss rate for ReadSharedReq accesses
system.cpu0.l2cache.ReadSharedReq_mshr_miss_rate::total     0.494706                       # mshr miss rate for ReadSharedReq accesses
system.cpu0.l2cache.ReadSharedReq_mshr_misses::.cpu0.dcache.prefetcher        16630                       # number of ReadSharedReq MSHR misses
system.cpu0.l2cache.ReadSharedReq_mshr_misses::.timingCpu0.dtb.walker          668                       # number of ReadSharedReq MSHR misses
system.cpu0.l2cache.ReadSharedReq_mshr_misses::.timingCpu0.itb.walker          377                       # number of ReadSharedReq MSHR misses
system.cpu0.l2cache.ReadSharedReq_mshr_misses::.timingCpu0.inst        45789                       # number of ReadSharedReq MSHR misses
system.cpu0.l2cache.ReadSharedReq_mshr_misses::.timingCpu0.data        38961                       # number of ReadSharedReq MSHR misses
system.cpu0.l2cache.ReadSharedReq_mshr_misses::total       102425                       # number of ReadSharedReq MSHR misses
system.cpu0.l2cache.UpgradeReq_accesses::.timingCpu0.data        28399                       # number of UpgradeReq accesses(hits+misses)
system.cpu0.l2cache.UpgradeReq_accesses::total        28399                       # number of UpgradeReq accesses(hits+misses)
system.cpu0.l2cache.UpgradeReq_avg_miss_latency::.timingCpu0.data 22481.262945                       # average UpgradeReq miss latency
system.cpu0.l2cache.UpgradeReq_avg_miss_latency::total 22481.262945                       # average UpgradeReq miss latency
system.cpu0.l2cache.UpgradeReq_avg_mshr_miss_latency::.timingCpu0.data 22923.326338                       # average UpgradeReq mshr miss latency
system.cpu0.l2cache.UpgradeReq_avg_mshr_miss_latency::total 22923.326338                       # average UpgradeReq mshr miss latency
system.cpu0.l2cache.UpgradeReq_hits::.timingCpu0.data        12293                       # number of UpgradeReq hits
system.cpu0.l2cache.UpgradeReq_hits::total        12293                       # number of UpgradeReq hits
system.cpu0.l2cache.UpgradeReq_miss_latency::.timingCpu0.data    362083221                       # number of UpgradeReq miss cycles
system.cpu0.l2cache.UpgradeReq_miss_latency::total    362083221                       # number of UpgradeReq miss cycles
system.cpu0.l2cache.UpgradeReq_miss_rate::.timingCpu0.data     0.567133                       # miss rate for UpgradeReq accesses
system.cpu0.l2cache.UpgradeReq_miss_rate::total     0.567133                       # miss rate for UpgradeReq accesses
system.cpu0.l2cache.UpgradeReq_misses::.timingCpu0.data        16106                       # number of UpgradeReq misses
system.cpu0.l2cache.UpgradeReq_misses::total        16106                       # number of UpgradeReq misses
system.cpu0.l2cache.UpgradeReq_mshr_miss_latency::.timingCpu0.data    369203094                       # number of UpgradeReq MSHR miss cycles
system.cpu0.l2cache.UpgradeReq_mshr_miss_latency::total    369203094                       # number of UpgradeReq MSHR miss cycles
system.cpu0.l2cache.UpgradeReq_mshr_miss_rate::.timingCpu0.data     0.567133                       # mshr miss rate for UpgradeReq accesses
system.cpu0.l2cache.UpgradeReq_mshr_miss_rate::total     0.567133                       # mshr miss rate for UpgradeReq accesses
system.cpu0.l2cache.UpgradeReq_mshr_misses::.timingCpu0.data        16106                       # number of UpgradeReq MSHR misses
system.cpu0.l2cache.UpgradeReq_mshr_misses::total        16106                       # number of UpgradeReq MSHR misses
system.cpu0.l2cache.WriteReq_mshr_uncacheable::.timingCpu0.data         2625                       # number of WriteReq MSHR uncacheable
system.cpu0.l2cache.WriteReq_mshr_uncacheable::total         2625                       # number of WriteReq MSHR uncacheable
system.cpu0.l2cache.WritebackClean_accesses::.writebacks       162769                       # number of WritebackClean accesses(hits+misses)
system.cpu0.l2cache.WritebackClean_accesses::total       162769                       # number of WritebackClean accesses(hits+misses)
system.cpu0.l2cache.WritebackClean_hits::.writebacks       162769                       # number of WritebackClean hits
[...]
system.timingCpu1.iq.FU_type_0::SimdFloatDiv            0      0.00%     79.38% # Type of FU issued
system.timingCpu1.iq.FU_type_0::SimdFloatMisc            0      0.00%     79.38% # Type of FU issued
system.timingCpu1.iq.FU_type_0::SimdFloatMult            0      0.00%     79.38% # Type of FU issued
system.timingCpu1.iq.FU_type_0::SimdFloatMultAcc            0      0.00%     79.38% # Type of FU issued
system.timingCpu1.iq.FU_type_0::SimdFloatSqrt            0      0.00%     79.38% # Type of FU issued
system.timingCpu1.iq.FU_type_0::SimdReduceAdd            0      0.00%     79.38% # Type of FU issued
system.timingCpu1.iq.FU_type_0::SimdReduceAlu            0      0.00%     79.38% # Type of FU issued
system.timingCpu1.iq.FU_type_0::SimdReduceCmp            0      0.00%     79.38% # Type of FU issued
system.timingCpu1.iq.FU_type_0::SimdFloatReduceAdd            0      0.00%     79.38% # Type of FU issued
system.timingCpu1.iq.FU_type_0::SimdFloatReduceCmp            0      0.00%     79.38% # Type of FU issued
system.timingCpu1.iq.FU_type_0::SimdAes             0      0.00%     79.38% # Type of FU issued
system.timingCpu1.iq.FU_type_0::SimdAesMix            0      0.00%     79.38% # Type of FU issued
system.timingCpu1.iq.FU_type_0::SimdSha1Hash            0      0.00%     79.38% # Type of FU issued
system.timingCpu1.iq.FU_type_0::SimdSha1Hash2            0      0.00%     79.38% # Type of FU issued
system.timingCpu1.iq.FU_type_0::SimdSha256Hash            0      0.00%     79.38% # Type of FU issued
system.timingCpu1.iq.FU_type_0::SimdSha256Hash2            0      0.00%     79.38% # Type of FU issued
system.timingCpu1.iq.FU_type_0::SimdShaSigma2            0      0.00%     79.38% # Type of FU issued
system.timingCpu1.iq.FU_type_0::SimdShaSigma3            0      0.00%     79.38% # Type of FU issued
system.timingCpu1.iq.FU_type_0::SimdPredAlu            0      0.00%     79.38% # Type of FU issued
system.timingCpu1.iq.FU_type_0::MemRead       2838374     12.55%     91.93% # Type of FU issued
system.timingCpu1.iq.FU_type_0::MemWrite      1800521      7.96%     99.89% # Type of FU issued
system.timingCpu1.iq.FU_type_0::FloatMemRead        20650      0.09%     99.98% # Type of FU issued
system.timingCpu1.iq.FU_type_0::FloatMemWrite         4590      0.02%    100.00% # Type of FU issued
system.timingCpu1.iq.FU_type_0::IprAccess            0      0.00%    100.00% # Type of FU issued
system.timingCpu1.iq.FU_type_0::InstPrefetch            0      0.00%    100.00% # Type of FU issued
system.timingCpu1.iq.FU_type_0::total        22624953                       # Type of FU issued
system.timingCpu1.iq.fp_alu_accesses            99555                       # Number of floating point alu accesses
system.timingCpu1.iq.fp_inst_queue_reads       197405                       # Number of floating instruction queue reads
system.timingCpu1.iq.fp_inst_queue_wakeup_accesses        91482                       # Number of floating instruction queue wakeup accesses
system.timingCpu1.iq.fp_inst_queue_writes       163072                       # Number of floating instruction queue writes
system.timingCpu1.iq.fu_busy_cnt               490911                       # FU busy when requested
system.timingCpu1.iq.fu_busy_rate            0.021698                       # FU busy rate (busy events/executed inst)
system.timingCpu1.iq.fu_full::No_OpClass            0      0.00%      0.00% # attempts to use FU when none available
system.timingCpu1.iq.fu_full::IntAlu           320616     65.31%     65.31% # attempts to use FU when none available
system.timingCpu1.iq.fu_full::IntMult               0      0.00%     65.31% # attempts to use FU when none available
system.timingCpu1.iq.fu_full::IntDiv                0      0.00%     65.31% # attempts to use FU when none available
system.timingCpu1.iq.fu_full::FloatAdd              0      0.00%     65.31% # attempts to use FU when none available
system.timingCpu1.iq.fu_full::FloatCmp              0      0.00%     65.31% # attempts to use FU when none available
system.timingCpu1.iq.fu_full::FloatCvt             38      0.01%     65.32% # attempts to use FU when none available
system.timingCpu1.iq.fu_full::FloatMult             0      0.00%     65.32% # attempts to use FU when none available
system.timingCpu1.iq.fu_full::FloatMultAcc            0      0.00%     65.32% # attempts to use FU when none available
system.timingCpu1.iq.fu_full::FloatDiv              0      0.00%     65.32% # attempts to use FU when none available
system.timingCpu1.iq.fu_full::FloatMisc             0      0.00%     65.32% # attempts to use FU when none available
system.timingCpu1.iq.fu_full::FloatSqrt             0      0.00%     65.32% # attempts to use FU when none available
system.timingCpu1.iq.fu_full::SimdAdd               2      0.00%     65.32% # attempts to use FU when none available
system.timingCpu1.iq.fu_full::SimdAddAcc            0      0.00%     65.32% # attempts to use FU when none available
system.timingCpu1.iq.fu_full::SimdAlu             716      0.15%     65.46% # attempts to use FU when none available
system.timingCpu1.iq.fu_full::SimdCmp              43      0.01%     65.47% # attempts to use FU when none available
system.timingCpu1.iq.fu_full::SimdCvt            1135      0.23%     65.70% # attempts to use FU when none available
system.timingCpu1.iq.fu_full::SimdMisc            187      0.04%     65.74% # attempts to use FU when none available
system.timingCpu1.iq.fu_full::SimdMult              0      0.00%     65.74% # attempts to use FU when none available
system.timingCpu1.iq.fu_full::SimdMultAcc            0      0.00%     65.74% # attempts to use FU when none available
system.timingCpu1.iq.fu_full::SimdShift             9      0.00%     65.74% # attempts to use FU when none available
system.timingCpu1.iq.fu_full::SimdShiftAcc            0      0.00%     65.74% # attempts to use FU when none available
system.timingCpu1.iq.fu_full::SimdDiv               0      0.00%     65.74% # attempts to use FU when none available
system.timingCpu1.iq.fu_full::SimdSqrt              0      0.00%     65.74% # attempts to use FU when none available
system.timingCpu1.iq.fu_full::SimdFloatAdd            0      0.00%     65.74% # attempts to use FU when none available
system.timingCpu1.iq.fu_full::SimdFloatAlu            0      0.00%     65.74% # attempts to use FU when none available
system.timingCpu1.iq.fu_full::SimdFloatCmp            0      0.00%     65.74% # attempts to use FU when none available
system.timingCpu1.iq.fu_full::SimdFloatCvt            0      0.00%     65.74% # attempts to use FU when none available
system.timingCpu1.iq.fu_full::SimdFloatDiv            0      0.00%     65.74% # attempts to use FU when none available
system.timingCpu1.iq.fu_full::SimdFloatMisc            0      0.00%     65.74% # attempts to use FU when none available
system.timingCpu1.iq.fu_full::SimdFloatMult            0      0.00%     65.74% # attempts to use FU when none available
system.timingCpu1.iq.fu_full::SimdFloatMultAcc            0      0.00%     65.74% # attempts to use FU when none available
system.timingCpu1.iq.fu_full::SimdFloatSqrt            0      0.00%     65.74% # attempts to use FU when none available
system.timingCpu1.iq.fu_full::SimdReduceAdd            0      0.00%     65.74% # attempts to use FU when none available
system.timingCpu1.iq.fu_full::SimdReduceAlu            0      0.00%     65.74% # attempts to use FU when none available
system.timingCpu1.iq.fu_full::SimdReduceCmp            0      0.00%     65.74% # attempts to use FU when none available
system.timingCpu1.iq.fu_full::SimdFloatReduceAdd            0      0.00%     65.74% # attempts to use FU when none available
system.timingCpu1.iq.fu_full::SimdFloatReduceCmp            0      0.00%     65.74% # attempts to use FU when none available
system.timingCpu1.iq.fu_full::SimdAes               0      0.00%     65.74% # attempts to use FU when none available
system.timingCpu1.iq.fu_full::SimdAesMix            0      0.00%     65.74% # attempts to use FU when none available
system.timingCpu1.iq.fu_full::SimdSha1Hash            0      0.00%     65.74% # attempts to use FU when none available
system.timingCpu1.iq.fu_full::SimdSha1Hash2            0      0.00%     65.74% # attempts to use FU when none available
system.timingCpu1.iq.fu_full::SimdSha256Hash            0      0.00%     65.74% # attempts to use FU when none available
system.timingCpu1.iq.fu_full::SimdSha256Hash2            0      0.00%     65.74% # attempts to use FU when none available
system.timingCpu1.iq.fu_full::SimdShaSigma2            0      0.00%     65.74% # attempts to use FU when none available
system.timingCpu1.iq.fu_full::SimdShaSigma3            0      0.00%     65.74% # attempts to use FU when none available
system.timingCpu1.iq.fu_full::SimdPredAlu            0      0.00%     65.74% # attempts to use FU when none available
system.timingCpu1.iq.fu_full::MemRead          103002     20.98%     86.73% # attempts to use FU when none available
system.timingCpu1.iq.fu_full::MemWrite          64124     13.06%     99.79% # attempts to use FU when none available
system.timingCpu1.iq.fu_full::FloatMemRead          612      0.12%     99.91% # attempts to use FU when none available
system.timingCpu1.iq.fu_full::FloatMemWrite          427      0.09%    100.00% # attempts to use FU when none available
system.timingCpu1.iq.fu_full::IprAccess             0      0.00%    100.00% # attempts to use FU when none available
system.timingCpu1.iq.fu_full::InstPrefetch            0      0.00%    100.00% # attempts to use FU when none available
system.timingCpu1.iq.int_alu_accesses        22461692                       # Number of integer alu accesses
system.timingCpu1.iq.int_inst_queue_reads     60213024                       # Number of integer instruction queue reads
system.timingCpu1.iq.int_inst_queue_wakeup_accesses     21568100                       # Number of integer instruction queue wakeup accesses
system.timingCpu1.iq.int_inst_queue_writes     34941522                       # Number of integer instruction queue writes
system.timingCpu1.iq.iqInstsAdded            25751455                       # Number of instructions added to the IQ (excludes non-spec)
system.timingCpu1.iq.iqInstsIssued           22624953                       # Number of instructions issued
system.timingCpu1.iq.iqNonSpecInstsAdded       317704                       # Number of non-speculative instructions added to the IQ
system.timingCpu1.iq.iqSquashedInstsExamined      9021027                       # Number of squashed instructions iterated over during squash; mainly for profiling
system.timingCpu1.iq.iqSquashedInstsIssued       198832                       # Number of squashed instructions issued
system.timingCpu1.iq.iqSquashedNonSpecRemoved       104190                       # Number of squashed non-spec instructions that were removed
system.timingCpu1.iq.iqSquashedOperandsExamined     13006835                       # Number of squashed operands that are examined and possibly removed from graph
system.timingCpu1.iq.issued_per_cycle::samples     14470780                       # Number of insts issued each cycle
system.timingCpu1.iq.issued_per_cycle::mean     1.563492                       # Number of insts issued each cycle
system.timingCpu1.iq.issued_per_cycle::stdev     2.307858                       # Number of insts issued each cycle
system.timingCpu1.iq.issued_per_cycle::underflows            0      0.00%      0.00% # Number of insts issued each cycle
system.timingCpu1.iq.issued_per_cycle::0      8494523     58.70%     58.70% # Number of insts issued each cycle
system.timingCpu1.iq.issued_per_cycle::1      1197624      8.28%     66.98% # Number of insts issued each cycle
system.timingCpu1.iq.issued_per_cycle::2       801073      5.54%     72.51% # Number of insts issued each cycle
system.timingCpu1.iq.issued_per_cycle::3       618178      4.27%     76.79% # Number of insts issued each cycle
system.timingCpu1.iq.issued_per_cycle::4      1349067      9.32%     86.11% # Number of insts issued each cycle
system.timingCpu1.iq.issued_per_cycle::5       601869      4.16%     90.27% # Number of insts issued each cycle
system.timingCpu1.iq.issued_per_cycle::6       624240      4.31%     94.58% # Number of insts issued each cycle
system.timingCpu1.iq.issued_per_cycle::7       454052      3.14%     97.72% # Number of insts issued each cycle
system.timingCpu1.iq.issued_per_cycle::8       330154      2.28%    100.00% # Number of insts issued each cycle
system.timingCpu1.iq.issued_per_cycle::overflows            0      0.00%    100.00% # Number of insts issued each cycle
system.timingCpu1.iq.issued_per_cycle::min_value            0                       # Number of insts issued each cycle
system.timingCpu1.iq.issued_per_cycle::max_value            8                       # Number of insts issued each cycle
system.timingCpu1.iq.issued_per_cycle::total     14470780                       # Number of insts issued each cycle
system.timingCpu1.iq.rate                    1.373539                       # Inst issue rate
system.timingCpu1.iq.vec_alu_accesses               0                       # Number of vector alu accesses
system.timingCpu1.iq.vec_inst_queue_reads            0                       # Number of vector instruction queue reads
system.timingCpu1.iq.vec_inst_queue_wakeup_accesses            0                       # Number of vector instruction queue wakeup accesses
system.timingCpu1.iq.vec_inst_queue_writes            0                       # Number of vector instruction queue writes
system.timingCpu1.itb.rdAccesses                    0                       # TLB accesses on read requests
system.timingCpu1.itb.rdMisses                      0                       # TLB misses on read requests
system.timingCpu1.itb.walker.pwrStateResidencyTicks::UNDEFINED 16909915053439                       # Cumulative time (in ticks) in various power states
system.timingCpu1.itb.wrAccesses              2060977                       # TLB accesses on write requests
system.timingCpu1.itb.wrMisses                   4923                       # TLB misses on write requests
system.timingCpu1.kern.inst.arm                     0                       # number of arm instructions executed
system.timingCpu1.kern.inst.quiesce                 0                       # number of quiesce instructions executed
system.timingCpu1.memDep0.conflictingLoads       626960                       # Number of conflicting loads.
system.timingCpu1.memDep0.conflictingStores       513666                       # Number of conflicting stores.
system.timingCpu1.memDep0.insertedLoads       3336189                       # Number of loads inserted to the mem dependence unit.
system.timingCpu1.memDep0.insertedStores      2218088                       # Number of stores inserted to the mem dependence unit.
system.timingCpu1.misc_regfile_reads          9661797                       # number of misc regfile reads
system.timingCpu1.misc_regfile_writes          106642                       # number of misc regfile writes
system.timingCpu1.numCycles                  16472011                       # number of cpu cycles simulated
system.timingCpu1.numPwrStateTransitions         4108                       # Number of power state transitions
system.timingCpu1.numWorkItemsCompleted             0                       # number of work items this cpu completed
system.timingCpu1.numWorkItemsStarted               0                       # number of work items this cpu started
system.timingCpu1.pwrStateClkGateDist::samples         2054                       # Distribution of time spent in the clock gated state
system.timingCpu1.pwrStateClkGateDist::mean 977669337.240506                       # Distribution of time spent in the clock gated state
system.timingCpu1.pwrStateClkGateDist::stdev 137967033.220482                       # Distribution of time spent in the clock gated state
system.timingCpu1.pwrStateClkGateDist::1000-5e+10         2054    100.00%    100.00% # Distribution of time spent in the clock gated state
system.timingCpu1.pwrStateClkGateDist::min_value       372295                       # Distribution of time spent in the clock gated state
system.timingCpu1.pwrStateClkGateDist::max_value    999293373                       # Distribution of time spent in the clock gated state
system.timingCpu1.pwrStateClkGateDist::total         2054                       # Distribution of time spent in the clock gated state
system.timingCpu1.pwrStateResidencyTicks::ON   5423104481                       # Cumulative time (in ticks) in various power states
system.timingCpu1.pwrStateResidencyTicks::CLK_GATED 2008132818692                       # Cumulative time (in ticks) in various power states
system.timingCpu1.pwrStateResidencyTicks::OFF 14896359130266                       # Cumulative time (in ticks) in various power states
system.timingCpu1.quiesceCycles            6030426846                       # Total number of cycles that CPU has spent quiesced or waiting for an interrupt
system.timingCpu1.rename.BlockCycles          2989851                       # Number of cycles rename is blocking
system.timingCpu1.rename.CommittedMaps       18087028                       # Number of HB maps that are committed
system.timingCpu1.rename.IQFullEvents          413126                       # Number of times rename has blocked due to IQ full
system.timingCpu1.rename.IdleCycles           2498803                       # Number of cycles rename is idle
system.timingCpu1.rename.LQFullEvents           16530                       # Number of times rename has blocked due to LQ full
system.timingCpu1.rename.ROBFullEvents          19710                       # Number of times rename has blocked due to ROB full
system.timingCpu1.rename.RenameLookups       73079946                       # Number of register rename lookups that rename has made
system.timingCpu1.rename.RenamedInsts        29216197                       # Number of instructions processed by rename
system.timingCpu1.rename.RenamedOperands     30813152                       # Number of destination operands rename has renamed
system.timingCpu1.rename.RunCycles            4087176                       # Number of cycles rename is running
system.timingCpu1.rename.SQFullEvents         1541482                       # Number of times rename has blocked due to SQ full
system.timingCpu1.rename.SquashCycles          355284                       # Number of cycles rename is squashing
system.timingCpu1.rename.UnblockCycles        2174787                       # Number of cycles rename is unblocking
system.timingCpu1.rename.UndoneMaps          12726124                       # Number of HB maps that are undone due to squashing
system.timingCpu1.rename.fp_rename_lookups       193298                       # Number of floating rename lookups
system.timingCpu1.rename.int_rename_lookups     42408549                       # Number of integer rename lookups
system.timingCpu1.rename.serializeStallCycles      2364879                       # count of cycles rename stalled for serializing inst
system.timingCpu1.rename.serializingInsts       126505                       # count of serializing insts renamed
system.timingCpu1.rename.skidInsts            2664040                       # count of insts added to the skid buffer
system.timingCpu1.rename.tempSerializingInsts       124435                       # count of temporary serializing insts renamed
system.timingCpu1.rob.rob_reads              38302016                       # The number of ROB reads
system.timingCpu1.rob.rob_writes             53481316                       # The number of ROB writes
system.timingCpu1.timesIdled                    23456                       # Number of times that the entire CPU went into an idle state and unscheduled itself

---------- End Simulation Statistics   ----------
